* NGSPICE file created from top_vga_spi_rom.ext - technology: gf180mcuD

* Black-box entry subcircuit for gf180mcu_fd_sc_mcu7t5v0__antenna abstract view
.subckt gf180mcu_fd_sc_mcu7t5v0__antenna I VDD VNW VPW VSS
.ends

* Black-box entry subcircuit for gf180mcu_fd_sc_mcu7t5v0__dffq_1 abstract view
.subckt gf180mcu_fd_sc_mcu7t5v0__dffq_1 D CLK Q VDD VNW VPW VSS
.ends

* Black-box entry subcircuit for gf180mcu_fd_sc_mcu7t5v0__filltie abstract view
.subckt gf180mcu_fd_sc_mcu7t5v0__filltie VDD VSS
.ends

* Black-box entry subcircuit for gf180mcu_fd_sc_mcu7t5v0__fill_2 abstract view
.subckt gf180mcu_fd_sc_mcu7t5v0__fill_2 VDD VNW VPW VSS
.ends

* Black-box entry subcircuit for gf180mcu_fd_sc_mcu7t5v0__endcap abstract view
.subckt gf180mcu_fd_sc_mcu7t5v0__endcap VDD VSS
.ends

* Black-box entry subcircuit for gf180mcu_fd_sc_mcu7t5v0__fill_1 abstract view
.subckt gf180mcu_fd_sc_mcu7t5v0__fill_1 VDD VNW VPW VSS
.ends

* Black-box entry subcircuit for gf180mcu_fd_sc_mcu7t5v0__fillcap_4 abstract view
.subckt gf180mcu_fd_sc_mcu7t5v0__fillcap_4 VDD VNW VPW VSS
.ends

* Black-box entry subcircuit for gf180mcu_fd_sc_mcu7t5v0__oai211_2 abstract view
.subckt gf180mcu_fd_sc_mcu7t5v0__oai211_2 A1 A2 B C ZN VDD VNW VPW VSS
.ends

* Black-box entry subcircuit for gf180mcu_fd_sc_mcu7t5v0__fillcap_8 abstract view
.subckt gf180mcu_fd_sc_mcu7t5v0__fillcap_8 VDD VNW VPW VSS
.ends

* Black-box entry subcircuit for gf180mcu_fd_sc_mcu7t5v0__oai21_1 abstract view
.subckt gf180mcu_fd_sc_mcu7t5v0__oai21_1 A1 A2 B ZN VDD VNW VPW VSS
.ends

* Black-box entry subcircuit for gf180mcu_fd_sc_mcu7t5v0__clkbuf_3 abstract view
.subckt gf180mcu_fd_sc_mcu7t5v0__clkbuf_3 I Z VDD VNW VPW VSS
.ends

* Black-box entry subcircuit for gf180mcu_fd_sc_mcu7t5v0__nand2_1 abstract view
.subckt gf180mcu_fd_sc_mcu7t5v0__nand2_1 A1 A2 ZN VDD VNW VPW VSS
.ends

* Black-box entry subcircuit for gf180mcu_fd_sc_mcu7t5v0__clkbuf_1 abstract view
.subckt gf180mcu_fd_sc_mcu7t5v0__clkbuf_1 I Z VDD VNW VPW VSS
.ends

* Black-box entry subcircuit for gf180mcu_fd_sc_mcu7t5v0__oai21_2 abstract view
.subckt gf180mcu_fd_sc_mcu7t5v0__oai21_2 A1 A2 B ZN VDD VNW VPW VSS
.ends

* Black-box entry subcircuit for gf180mcu_fd_sc_mcu7t5v0__fillcap_16 abstract view
.subckt gf180mcu_fd_sc_mcu7t5v0__fillcap_16 VDD VNW VPW VSS
.ends

* Black-box entry subcircuit for gf180mcu_fd_sc_mcu7t5v0__fillcap_32 abstract view
.subckt gf180mcu_fd_sc_mcu7t5v0__fillcap_32 VDD VNW VPW VSS
.ends

* Black-box entry subcircuit for gf180mcu_fd_sc_mcu7t5v0__aoi21_1 abstract view
.subckt gf180mcu_fd_sc_mcu7t5v0__aoi21_1 A1 A2 B ZN VDD VNW VPW VSS
.ends

* Black-box entry subcircuit for gf180mcu_fd_sc_mcu7t5v0__clkbuf_2 abstract view
.subckt gf180mcu_fd_sc_mcu7t5v0__clkbuf_2 I Z VDD VNW VPW VSS
.ends

* Black-box entry subcircuit for gf180mcu_fd_sc_mcu7t5v0__clkbuf_8 abstract view
.subckt gf180mcu_fd_sc_mcu7t5v0__clkbuf_8 I Z VDD VNW VPW VSS
.ends

* Black-box entry subcircuit for gf180mcu_fd_sc_mcu7t5v0__clkinv_1 abstract view
.subckt gf180mcu_fd_sc_mcu7t5v0__clkinv_1 I ZN VDD VNW VPW VSS
.ends

* Black-box entry subcircuit for gf180mcu_fd_sc_mcu7t5v0__dffnq_1 abstract view
.subckt gf180mcu_fd_sc_mcu7t5v0__dffnq_1 D CLKN Q VDD VNW VPW VSS
.ends

* Black-box entry subcircuit for gf180mcu_fd_sc_mcu7t5v0__aoi211_2 abstract view
.subckt gf180mcu_fd_sc_mcu7t5v0__aoi211_2 A1 A2 B C ZN VDD VNW VPW VSS
.ends

* Black-box entry subcircuit for gf180mcu_fd_sc_mcu7t5v0__buf_2 abstract view
.subckt gf180mcu_fd_sc_mcu7t5v0__buf_2 I Z VDD VNW VPW VSS
.ends

* Black-box entry subcircuit for gf180mcu_fd_sc_mcu7t5v0__nor2_1 abstract view
.subckt gf180mcu_fd_sc_mcu7t5v0__nor2_1 A1 A2 ZN VDD VNW VPW VSS
.ends

* Black-box entry subcircuit for gf180mcu_fd_sc_mcu7t5v0__aoi21_2 abstract view
.subckt gf180mcu_fd_sc_mcu7t5v0__aoi21_2 A1 A2 B ZN VDD VNW VPW VSS
.ends

* Black-box entry subcircuit for gf180mcu_fd_sc_mcu7t5v0__buf_1 abstract view
.subckt gf180mcu_fd_sc_mcu7t5v0__buf_1 I Z VDD VNW VPW VSS
.ends

* Black-box entry subcircuit for gf180mcu_fd_sc_mcu7t5v0__buf_8 abstract view
.subckt gf180mcu_fd_sc_mcu7t5v0__buf_8 I Z VDD VNW VPW VSS
.ends

* Black-box entry subcircuit for gf180mcu_fd_sc_mcu7t5v0__nand3_1 abstract view
.subckt gf180mcu_fd_sc_mcu7t5v0__nand3_1 A1 A2 A3 ZN VDD VNW VPW VSS
.ends

* Black-box entry subcircuit for gf180mcu_fd_sc_mcu7t5v0__nand2_2 abstract view
.subckt gf180mcu_fd_sc_mcu7t5v0__nand2_2 A1 A2 ZN VDD VNW VPW VSS
.ends

* Black-box entry subcircuit for gf180mcu_fd_sc_mcu7t5v0__mux2_2 abstract view
.subckt gf180mcu_fd_sc_mcu7t5v0__mux2_2 I0 I1 S Z VDD VNW VPW VSS
.ends

* Black-box entry subcircuit for gf180mcu_fd_sc_mcu7t5v0__or3_1 abstract view
.subckt gf180mcu_fd_sc_mcu7t5v0__or3_1 A1 A2 A3 Z VDD VNW VPW VSS
.ends

* Black-box entry subcircuit for gf180mcu_fd_sc_mcu7t5v0__fillcap_64 abstract view
.subckt gf180mcu_fd_sc_mcu7t5v0__fillcap_64 VDD VNW VPW VSS
.ends

* Black-box entry subcircuit for gf180mcu_fd_sc_mcu7t5v0__oai211_1 abstract view
.subckt gf180mcu_fd_sc_mcu7t5v0__oai211_1 A1 A2 B C ZN VDD VNW VPW VSS
.ends

* Black-box entry subcircuit for gf180mcu_fd_sc_mcu7t5v0__and2_1 abstract view
.subckt gf180mcu_fd_sc_mcu7t5v0__and2_1 A1 A2 Z VDD VNW VPW VSS
.ends

* Black-box entry subcircuit for gf180mcu_fd_sc_mcu7t5v0__nand4_1 abstract view
.subckt gf180mcu_fd_sc_mcu7t5v0__nand4_1 A1 A2 A3 A4 ZN VDD VNW VPW VSS
.ends

* Black-box entry subcircuit for gf180mcu_fd_sc_mcu7t5v0__oai31_2 abstract view
.subckt gf180mcu_fd_sc_mcu7t5v0__oai31_2 A1 A2 A3 B ZN VDD VNW VPW VSS
.ends

* Black-box entry subcircuit for gf180mcu_fd_sc_mcu7t5v0__aoi211_1 abstract view
.subckt gf180mcu_fd_sc_mcu7t5v0__aoi211_1 A1 A2 B C ZN VDD VNW VPW VSS
.ends

* Black-box entry subcircuit for gf180mcu_fd_sc_mcu7t5v0__nor3_1 abstract view
.subckt gf180mcu_fd_sc_mcu7t5v0__nor3_1 A1 A2 A3 ZN VDD VNW VPW VSS
.ends

* Black-box entry subcircuit for gf180mcu_fd_sc_mcu7t5v0__aoi221_4 abstract view
.subckt gf180mcu_fd_sc_mcu7t5v0__aoi221_4 A1 A2 B1 B2 C ZN VDD VNW VPW VSS
.ends

* Black-box entry subcircuit for gf180mcu_fd_sc_mcu7t5v0__xor2_1 abstract view
.subckt gf180mcu_fd_sc_mcu7t5v0__xor2_1 A1 A2 Z VDD VNW VPW VSS
.ends

* Black-box entry subcircuit for gf180mcu_fd_sc_mcu7t5v0__nand4_2 abstract view
.subckt gf180mcu_fd_sc_mcu7t5v0__nand4_2 A1 A2 A3 A4 ZN VDD VNW VPW VSS
.ends

* Black-box entry subcircuit for gf180mcu_fd_sc_mcu7t5v0__dlyb_1 abstract view
.subckt gf180mcu_fd_sc_mcu7t5v0__dlyb_1 I Z VDD VNW VPW VSS
.ends

* Black-box entry subcircuit for gf180mcu_fd_sc_mcu7t5v0__nor2_2 abstract view
.subckt gf180mcu_fd_sc_mcu7t5v0__nor2_2 A1 A2 ZN VDD VNW VPW VSS
.ends

* Black-box entry subcircuit for gf180mcu_fd_sc_mcu7t5v0__nor3_2 abstract view
.subckt gf180mcu_fd_sc_mcu7t5v0__nor3_2 A1 A2 A3 ZN VDD VNW VPW VSS
.ends

* Black-box entry subcircuit for gf180mcu_fd_sc_mcu7t5v0__tiel abstract view
.subckt gf180mcu_fd_sc_mcu7t5v0__tiel ZN VDD VNW VPW VSS
.ends

* Black-box entry subcircuit for gf180mcu_fd_sc_mcu7t5v0__and3_1 abstract view
.subckt gf180mcu_fd_sc_mcu7t5v0__and3_1 A1 A2 A3 Z VDD VNW VPW VSS
.ends

* Black-box entry subcircuit for gf180mcu_fd_sc_mcu7t5v0__or2_1 abstract view
.subckt gf180mcu_fd_sc_mcu7t5v0__or2_1 A1 A2 Z VDD VNW VPW VSS
.ends

* Black-box entry subcircuit for gf180mcu_fd_sc_mcu7t5v0__oai31_1 abstract view
.subckt gf180mcu_fd_sc_mcu7t5v0__oai31_1 A1 A2 A3 B ZN VDD VNW VPW VSS
.ends

* Black-box entry subcircuit for gf180mcu_fd_sc_mcu7t5v0__nor4_2 abstract view
.subckt gf180mcu_fd_sc_mcu7t5v0__nor4_2 A1 A2 A3 A4 ZN VDD VNW VPW VSS
.ends

* Black-box entry subcircuit for gf180mcu_fd_sc_mcu7t5v0__nand3_2 abstract view
.subckt gf180mcu_fd_sc_mcu7t5v0__nand3_2 A1 A2 A3 ZN VDD VNW VPW VSS
.ends

* Black-box entry subcircuit for gf180mcu_fd_sc_mcu7t5v0__tieh abstract view
.subckt gf180mcu_fd_sc_mcu7t5v0__tieh Z VDD VNW VPW VSS
.ends

* Black-box entry subcircuit for gf180mcu_fd_sc_mcu7t5v0__aoi221_1 abstract view
.subckt gf180mcu_fd_sc_mcu7t5v0__aoi221_1 A1 A2 B1 B2 C ZN VDD VNW VPW VSS
.ends

* Black-box entry subcircuit for gf180mcu_fd_sc_mcu7t5v0__inv_1 abstract view
.subckt gf180mcu_fd_sc_mcu7t5v0__inv_1 I ZN VDD VNW VPW VSS
.ends

* Black-box entry subcircuit for gf180mcu_fd_sc_mcu7t5v0__or4_1 abstract view
.subckt gf180mcu_fd_sc_mcu7t5v0__or4_1 A1 A2 A3 A4 Z VDD VNW VPW VSS
.ends

* Black-box entry subcircuit for gf180mcu_fd_sc_mcu7t5v0__dlyc_1 abstract view
.subckt gf180mcu_fd_sc_mcu7t5v0__dlyc_1 I Z VDD VNW VPW VSS
.ends

* Black-box entry subcircuit for gf180mcu_fd_sc_mcu7t5v0__nand4_4 abstract view
.subckt gf180mcu_fd_sc_mcu7t5v0__nand4_4 A1 A2 A3 A4 ZN VDD VNW VPW VSS
.ends

* Black-box entry subcircuit for gf180mcu_fd_sc_mcu7t5v0__nor4_4 abstract view
.subckt gf180mcu_fd_sc_mcu7t5v0__nor4_4 A1 A2 A3 A4 ZN VDD VNW VPW VSS
.ends

* Black-box entry subcircuit for gf180mcu_fd_sc_mcu7t5v0__aoi221_2 abstract view
.subckt gf180mcu_fd_sc_mcu7t5v0__aoi221_2 A1 A2 B1 B2 C ZN VDD VNW VPW VSS
.ends

* Black-box entry subcircuit for gf180mcu_fd_sc_mcu7t5v0__clkbuf_16 abstract view
.subckt gf180mcu_fd_sc_mcu7t5v0__clkbuf_16 I Z VDD VNW VPW VSS
.ends

* Black-box entry subcircuit for gf180mcu_fd_sc_mcu7t5v0__aoi22_2 abstract view
.subckt gf180mcu_fd_sc_mcu7t5v0__aoi22_2 A1 A2 B1 B2 ZN VDD VNW VPW VSS
.ends

* Black-box entry subcircuit for gf180mcu_fd_sc_mcu7t5v0__mux4_1 abstract view
.subckt gf180mcu_fd_sc_mcu7t5v0__mux4_1 I0 I1 I2 I3 S0 S1 Z VDD VNW VPW VSS
.ends

* Black-box entry subcircuit for gf180mcu_fd_sc_mcu7t5v0__oai22_1 abstract view
.subckt gf180mcu_fd_sc_mcu7t5v0__oai22_1 A1 A2 B1 B2 ZN VDD VNW VPW VSS
.ends

* Black-box entry subcircuit for gf180mcu_fd_sc_mcu7t5v0__nor4_1 abstract view
.subckt gf180mcu_fd_sc_mcu7t5v0__nor4_1 A1 A2 A3 A4 ZN VDD VNW VPW VSS
.ends

* Black-box entry subcircuit for gf180mcu_fd_sc_mcu7t5v0__nor2_4 abstract view
.subckt gf180mcu_fd_sc_mcu7t5v0__nor2_4 A1 A2 ZN VDD VNW VPW VSS
.ends

* Black-box entry subcircuit for gf180mcu_fd_sc_mcu7t5v0__oai221_2 abstract view
.subckt gf180mcu_fd_sc_mcu7t5v0__oai221_2 A1 A2 B1 B2 C ZN VDD VNW VPW VSS
.ends

* Black-box entry subcircuit for gf180mcu_fd_sc_mcu7t5v0__aoi22_1 abstract view
.subckt gf180mcu_fd_sc_mcu7t5v0__aoi22_1 A1 A2 B1 B2 ZN VDD VNW VPW VSS
.ends

* Black-box entry subcircuit for gf180mcu_fd_sc_mcu7t5v0__nand3_4 abstract view
.subckt gf180mcu_fd_sc_mcu7t5v0__nand3_4 A1 A2 A3 ZN VDD VNW VPW VSS
.ends

* Black-box entry subcircuit for gf180mcu_fd_sc_mcu7t5v0__oai211_4 abstract view
.subckt gf180mcu_fd_sc_mcu7t5v0__oai211_4 A1 A2 B C ZN VDD VNW VPW VSS
.ends

* Black-box entry subcircuit for gf180mcu_fd_sc_mcu7t5v0__clkinv_2 abstract view
.subckt gf180mcu_fd_sc_mcu7t5v0__clkinv_2 I ZN VDD VNW VPW VSS
.ends

* Black-box entry subcircuit for gf180mcu_fd_sc_mcu7t5v0__aoi211_4 abstract view
.subckt gf180mcu_fd_sc_mcu7t5v0__aoi211_4 A1 A2 B C ZN VDD VNW VPW VSS
.ends

* Black-box entry subcircuit for gf180mcu_fd_sc_mcu7t5v0__xor2_2 abstract view
.subckt gf180mcu_fd_sc_mcu7t5v0__xor2_2 A1 A2 Z VDD VNW VPW VSS
.ends

* Black-box entry subcircuit for gf180mcu_fd_sc_mcu7t5v0__aoi22_4 abstract view
.subckt gf180mcu_fd_sc_mcu7t5v0__aoi22_4 A1 A2 B1 B2 ZN VDD VNW VPW VSS
.ends

* Black-box entry subcircuit for gf180mcu_fd_sc_mcu7t5v0__oai32_1 abstract view
.subckt gf180mcu_fd_sc_mcu7t5v0__oai32_1 A1 A2 A3 B1 B2 ZN VDD VNW VPW VSS
.ends

* Black-box entry subcircuit for gf180mcu_fd_sc_mcu7t5v0__oai32_2 abstract view
.subckt gf180mcu_fd_sc_mcu7t5v0__oai32_2 A1 A2 A3 B1 B2 ZN VDD VNW VPW VSS
.ends

* Black-box entry subcircuit for gf180mcu_fd_sc_mcu7t5v0__dffq_2 abstract view
.subckt gf180mcu_fd_sc_mcu7t5v0__dffq_2 D CLK Q VDD VNW VPW VSS
.ends

* Black-box entry subcircuit for gf180mcu_fd_sc_mcu7t5v0__nand2_4 abstract view
.subckt gf180mcu_fd_sc_mcu7t5v0__nand2_4 A1 A2 ZN VDD VNW VPW VSS
.ends

.subckt top_vga_spi_rom clk rst ui_in[0] ui_in[1] ui_in[2] ui_in[3] ui_in[4] ui_in[5]
+ ui_in[6] ui_in[7] uio_in[0] uio_in[1] uio_in[2] uio_in[3] uio_in[4] uio_in[5] uio_in[6]
+ uio_in[7] uio_oe[1] uio_oe[2] uio_oe[3] uio_oe[4] uio_oe[5] uio_oe[6] uio_oe[7]
+ uio_out[0] uio_out[1] uio_out[2] uio_out[3] uio_out[4] uio_out[5] uio_out[7] uo_out[0]
+ uo_out[1] uo_out[2] uo_out[3] uo_out[4] uo_out[5] uo_out[6] uo_out[7] vdd vss uio_oe[0]
+ uio_out[6]
XANTENNA__1343__B _0602_ vdd vdd vss vss gf180mcu_fd_sc_mcu7t5v0__antenna
X_2037_ net39 clknet_4_0_0_clk tt_um_algofoogle_vga_spi_rom.r_rgb\[4\] vdd vdd vss
+ vss gf180mcu_fd_sc_mcu7t5v0__dffq_1
XTAP_TAPCELL_ROW_52_415 vdd vss gf180mcu_fd_sc_mcu7t5v0__filltie
XFILLER_0_32_247 vdd vdd vss vss gf180mcu_fd_sc_mcu7t5v0__fill_2
XPHY_EDGE_ROW_37_Left_97 vdd vss gf180mcu_fd_sc_mcu7t5v0__endcap
XFILLER_0_23_214 vdd vdd vss vss gf180mcu_fd_sc_mcu7t5v0__fill_1
XFILLER_0_48_37 vdd vdd vss vss gf180mcu_fd_sc_mcu7t5v0__fillcap_4
XTAP_TAPCELL_ROW_8_170 vdd vss gf180mcu_fd_sc_mcu7t5v0__filltie
X_1270_ _0380_ tt_um_algofoogle_vga_spi_rom.vga_spi_rom.data_buffer\[18\] _0671_ _0457_
+ _0672_ vdd vdd vss vss gf180mcu_fd_sc_mcu7t5v0__oai211_2
XFILLER_0_46_339 vdd vdd vss vss gf180mcu_fd_sc_mcu7t5v0__fillcap_8
XFILLER_0_13_84 vdd vdd vss vss gf180mcu_fd_sc_mcu7t5v0__fill_2
XFILLER_0_54_383 vdd vdd vss vss gf180mcu_fd_sc_mcu7t5v0__fill_2
X_1606_ _0579_ _0905_ _0181_ _0052_ vdd vdd vss vss gf180mcu_fd_sc_mcu7t5v0__oai21_1
XANTENNA__1295__S0 _0642_ vdd vdd vss vss gf180mcu_fd_sc_mcu7t5v0__antenna
X_0985_ _0390_ _0394_ vdd vdd vss vss gf180mcu_fd_sc_mcu7t5v0__clkbuf_3
XFILLER_0_14_247 vdd vdd vss vss gf180mcu_fd_sc_mcu7t5v0__fill_2
X_1537_ tt_um_algofoogle_vga_spi_rom.vga_spi_rom.data_buffer\[9\] _0907_ _0912_ vdd
+ vdd vss vss gf180mcu_fd_sc_mcu7t5v0__nand2_1
XFILLER_0_38_70 vdd vdd vss vss gf180mcu_fd_sc_mcu7t5v0__fillcap_8
X_1399_ _0800_ net23 vdd vdd vss vss gf180mcu_fd_sc_mcu7t5v0__clkbuf_1
X_1468_ _0856_ _0837_ _0858_ _0859_ vdd vdd vss vss gf180mcu_fd_sc_mcu7t5v0__oai21_2
XFILLER_0_49_111 vdd vdd vss vss gf180mcu_fd_sc_mcu7t5v0__fillcap_16
XFILLER_0_9_252 vdd vdd vss vss gf180mcu_fd_sc_mcu7t5v0__fill_2
XANTENNA__1666__A1 tt_um_algofoogle_vga_spi_rom.vga_spi_rom.data_buffer\[64\] vdd
+ vdd vss vss gf180mcu_fd_sc_mcu7t5v0__antenna
XFILLER_0_59_36 vdd vdd vss vss gf180mcu_fd_sc_mcu7t5v0__fillcap_32
XFILLER_0_51_375 vdd vdd vss vss gf180mcu_fd_sc_mcu7t5v0__fillcap_32
XANTENNA__1672__I _0207_ vdd vdd vss vss gf180mcu_fd_sc_mcu7t5v0__antenna
X_1322_ _0722_ _0723_ _0496_ _0724_ vdd vdd vss vss gf180mcu_fd_sc_mcu7t5v0__aoi21_1
X_1253_ _0363_ _0655_ vdd vdd vss vss gf180mcu_fd_sc_mcu7t5v0__clkbuf_2
XFILLER_0_59_420 vdd vdd vss vss gf180mcu_fd_sc_mcu7t5v0__fill_1
X_1184_ _0492_ _0586_ vdd vdd vss vss gf180mcu_fd_sc_mcu7t5v0__clkbuf_1
XANTENNA__1340__C _0597_ vdd vdd vss vss gf180mcu_fd_sc_mcu7t5v0__antenna
XTAP_TAPCELL_ROW_19_231 vdd vss gf180mcu_fd_sc_mcu7t5v0__filltie
Xclkbuf_4_12_0_clk clknet_0_clk clknet_4_12_0_clk vdd vdd vss vss gf180mcu_fd_sc_mcu7t5v0__clkbuf_8
XFILLER_0_6_244 vdd vdd vss vss gf180mcu_fd_sc_mcu7t5v0__fill_1
X_0968_ _0376_ _0377_ vdd vdd vss vss gf180mcu_fd_sc_mcu7t5v0__clkinv_1
XFILLER_0_37_158 vdd vdd vss vss gf180mcu_fd_sc_mcu7t5v0__fillcap_4
XFILLER_0_37_136 vdd vdd vss vss gf180mcu_fd_sc_mcu7t5v0__fillcap_4
XTAP_TAPCELL_ROW_25_267 vdd vss gf180mcu_fd_sc_mcu7t5v0__filltie
XFILLER_0_52_139 vdd vdd vss vss gf180mcu_fd_sc_mcu7t5v0__fillcap_8
X_1940_ _0057_ clknet_4_6_0_clk tt_um_algofoogle_vga_spi_rom.vga_spi_rom.data_buffer\[45\]
+ vdd vdd vss vss gf180mcu_fd_sc_mcu7t5v0__dffnq_1
X_1871_ _0332_ _0337_ vdd vdd vss vss gf180mcu_fd_sc_mcu7t5v0__clkinv_1
XPHY_EDGE_ROW_24_Left_84 vdd vss gf180mcu_fd_sc_mcu7t5v0__endcap
XFILLER_0_10_30 vdd vdd vss vss gf180mcu_fd_sc_mcu7t5v0__fill_2
XFILLER_0_10_96 vdd vdd vss vss gf180mcu_fd_sc_mcu7t5v0__fill_1
X_1236_ _0613_ _0619_ _0636_ _0637_ _0638_ vdd vdd vss vss gf180mcu_fd_sc_mcu7t5v0__aoi211_2
X_1305_ _0405_ _0707_ vdd vdd vss vss gf180mcu_fd_sc_mcu7t5v0__buf_2
XFILLER_0_19_50 vdd vdd vss vss gf180mcu_fd_sc_mcu7t5v0__fillcap_16
XFILLER_0_19_72 vdd vdd vss vss gf180mcu_fd_sc_mcu7t5v0__fill_2
XFILLER_0_59_283 vdd vdd vss vss gf180mcu_fd_sc_mcu7t5v0__fillcap_16
X_1167_ _0568_ tt_um_algofoogle_vga_spi_rom.vga_spi_rom.data_buffer\[47\] _0569_ vdd
+ vdd vss vss gf180mcu_fd_sc_mcu7t5v0__nor2_1
X_1098_ _0494_ _0502_ _0505_ net12 vdd vdd vss vss gf180mcu_fd_sc_mcu7t5v0__aoi21_2
XFILLER_0_42_172 vdd vdd vss vss gf180mcu_fd_sc_mcu7t5v0__fill_1
XFILLER_0_30_312 vdd vdd vss vss gf180mcu_fd_sc_mcu7t5v0__fill_2
XTAP_TAPCELL_ROW_30_292 vdd vss gf180mcu_fd_sc_mcu7t5v0__filltie
XTAP_TAPCELL_ROW_22_248 vdd vss gf180mcu_fd_sc_mcu7t5v0__filltie
XFILLER_0_19_169 vdd vdd vss vss gf180mcu_fd_sc_mcu7t5v0__fill_1
XANTENNA__1030__A2 _0362_ vdd vdd vss vss gf180mcu_fd_sc_mcu7t5v0__antenna
XFILLER_0_33_161 vdd vdd vss vss gf180mcu_fd_sc_mcu7t5v0__fillcap_16
XFILLER_0_21_378 vdd vdd vss vss gf180mcu_fd_sc_mcu7t5v0__fill_2
XFILLER_0_21_334 vdd vdd vss vss gf180mcu_fd_sc_mcu7t5v0__fill_1
XFILLER_0_56_37 vdd vdd vss vss gf180mcu_fd_sc_mcu7t5v0__fillcap_32
XTAP_TAPCELL_ROW_44_373 vdd vss gf180mcu_fd_sc_mcu7t5v0__filltie
XTAP_TAPCELL_ROW_36_329 vdd vss gf180mcu_fd_sc_mcu7t5v0__filltie
X_1021_ _0425_ _0429_ _0430_ vdd vdd vss vss gf180mcu_fd_sc_mcu7t5v0__nor2_1
X_1923_ _0040_ clknet_4_15_0_clk tt_um_algofoogle_vga_spi_rom.vga_spi_rom.data_buffer\[28\]
+ vdd vdd vss vss gf180mcu_fd_sc_mcu7t5v0__dffnq_1
X_1854_ _0329_ _0152_ vdd vdd vss vss gf180mcu_fd_sc_mcu7t5v0__clkbuf_1
X_1785_ _0284_ _0128_ vdd vdd vss vss gf180mcu_fd_sc_mcu7t5v0__clkbuf_1
X_1219_ _0427_ _0621_ vdd vdd vss vss gf180mcu_fd_sc_mcu7t5v0__clkbuf_1
XFILLER_0_27_2 vdd vdd vss vss gf180mcu_fd_sc_mcu7t5v0__fill_2
XFILLER_0_47_275 vdd vdd vss vss gf180mcu_fd_sc_mcu7t5v0__fill_2
XFILLER_0_1_72 vdd vdd vss vss gf180mcu_fd_sc_mcu7t5v0__fill_2
XANTENNA__1251__A2 _0574_ vdd vdd vss vss gf180mcu_fd_sc_mcu7t5v0__antenna
XTAP_TAPCELL_ROW_41_354 vdd vss gf180mcu_fd_sc_mcu7t5v0__filltie
XFILLER_0_38_286 vdd vdd vss vss gf180mcu_fd_sc_mcu7t5v0__fillcap_4
XFILLER_0_38_275 vdd vdd vss vss gf180mcu_fd_sc_mcu7t5v0__fill_1
XFILLER_0_26_415 vdd vdd vss vss gf180mcu_fd_sc_mcu7t5v0__fillcap_4
X_1570_ _0930_ _0036_ vdd vdd vss vss gf180mcu_fd_sc_mcu7t5v0__clkbuf_1
XFILLER_0_21_131 vdd vdd vss vss gf180mcu_fd_sc_mcu7t5v0__fill_1
XFILLER_0_21_142 vdd vdd vss vss gf180mcu_fd_sc_mcu7t5v0__fill_2
XFILLER_0_44_212 vdd vdd vss vss gf180mcu_fd_sc_mcu7t5v0__fill_1
X_1004_ _0347_ _0413_ vdd vdd vss vss gf180mcu_fd_sc_mcu7t5v0__buf_1
XFILLER_0_8_103 vdd vdd vss vss gf180mcu_fd_sc_mcu7t5v0__fill_2
XFILLER_0_8_158 vdd vdd vss vss gf180mcu_fd_sc_mcu7t5v0__fill_1
X_1906_ _0023_ clknet_4_7_0_clk tt_um_algofoogle_vga_spi_rom.vga_spi_rom.data_buffer\[11\]
+ vdd vdd vss vss gf180mcu_fd_sc_mcu7t5v0__dffnq_1
X_1768_ _0275_ _0120_ vdd vdd vss vss gf180mcu_fd_sc_mcu7t5v0__clkbuf_1
XFILLER_0_4_342 vdd vdd vss vss gf180mcu_fd_sc_mcu7t5v0__fill_1
X_1837_ _0536_ _0317_ vdd vdd vss vss gf180mcu_fd_sc_mcu7t5v0__buf_1
X_1699_ _0235_ _0091_ vdd vdd vss vss gf180mcu_fd_sc_mcu7t5v0__clkbuf_1
XPHY_EDGE_ROW_11_Left_71 vdd vss gf180mcu_fd_sc_mcu7t5v0__endcap
XFILLER_0_35_278 vdd vdd vss vss gf180mcu_fd_sc_mcu7t5v0__fill_2
Xoutput20 net20 uo_out[2] vdd vdd vss vss gf180mcu_fd_sc_mcu7t5v0__buf_8
XANTENNA__1942__CLKN clknet_4_6_0_clk vdd vdd vss vss gf180mcu_fd_sc_mcu7t5v0__antenna
X_1622_ tt_um_algofoogle_vga_spi_rom.vga_spi_rom.data_buffer\[45\] _0184_ _0192_ vdd
+ vdd vss vss gf180mcu_fd_sc_mcu7t5v0__nand2_1
XFILLER_0_26_234 vdd vdd vss vss gf180mcu_fd_sc_mcu7t5v0__fill_2
XANTENNA__1957__CLKN clknet_4_11_0_clk vdd vdd vss vss gf180mcu_fd_sc_mcu7t5v0__antenna
XFILLER_0_5_139 vdd vdd vss vss gf180mcu_fd_sc_mcu7t5v0__fill_1
XFILLER_0_5_106 vdd vdd vss vss gf180mcu_fd_sc_mcu7t5v0__fill_2
XFILLER_0_1_312 vdd vdd vss vss gf180mcu_fd_sc_mcu7t5v0__fill_1
X_1553_ _0920_ _0029_ vdd vdd vss vss gf180mcu_fd_sc_mcu7t5v0__clkbuf_1
X_1484_ _0549_ _0822_ _0868_ _0871_ vdd vdd vss vss gf180mcu_fd_sc_mcu7t5v0__nand3_1
XTAP_TAPCELL_ROW_52_416 vdd vss gf180mcu_fd_sc_mcu7t5v0__filltie
XFILLER_0_49_348 vdd vdd vss vss gf180mcu_fd_sc_mcu7t5v0__fill_2
XFILLER_0_27_83 vdd vdd vss vss gf180mcu_fd_sc_mcu7t5v0__fill_2
XFILLER_0_27_72 vdd vdd vss vss gf180mcu_fd_sc_mcu7t5v0__fill_2
X_2036_ _0153_ clknet_4_8_0_clk tt_um_algofoogle_vga_spi_rom.r_rgb\[3\] vdd vdd vss
+ vss gf180mcu_fd_sc_mcu7t5v0__dffq_1
XFILLER_0_17_245 vdd vdd vss vss gf180mcu_fd_sc_mcu7t5v0__fillcap_8
XFILLER_0_4_194 vdd vdd vss vss gf180mcu_fd_sc_mcu7t5v0__fill_1
XFILLER_0_4_172 vdd vdd vss vss gf180mcu_fd_sc_mcu7t5v0__fill_2
XFILLER_0_55_318 vdd vdd vss vss gf180mcu_fd_sc_mcu7t5v0__fillcap_4
XTAP_TAPCELL_ROW_8_171 vdd vss gf180mcu_fd_sc_mcu7t5v0__filltie
XFILLER_0_58_101 vdd vdd vss vss gf180mcu_fd_sc_mcu7t5v0__fillcap_4
XANTENNA__1896__CLKN clknet_4_5_0_clk vdd vdd vss vss gf180mcu_fd_sc_mcu7t5v0__antenna
X_0984_ _0387_ _0392_ _0393_ vdd vdd vss vss gf180mcu_fd_sc_mcu7t5v0__nand2_2
X_1605_ tt_um_algofoogle_vga_spi_rom.vga_spi_rom.data_buffer\[39\] _0907_ _0181_ vdd
+ vdd vss vss gf180mcu_fd_sc_mcu7t5v0__nand2_1
X_1536_ _0651_ _0909_ _0911_ _0021_ vdd vdd vss vss gf180mcu_fd_sc_mcu7t5v0__aoi21_1
XANTENNA__1295__S1 _0665_ vdd vdd vss vss gf180mcu_fd_sc_mcu7t5v0__antenna
XANTENNA__1354__B _0451_ vdd vdd vss vss gf180mcu_fd_sc_mcu7t5v0__antenna
X_1467_ _0857_ _0858_ vdd vdd vss vss gf180mcu_fd_sc_mcu7t5v0__buf_1
X_1398_ _0799_ tt_um_algofoogle_vga_spi_rom.r_rgb\[2\] _0553_ _0800_ vdd vdd vss vss
+ gf180mcu_fd_sc_mcu7t5v0__mux2_2
XFILLER_0_49_189 vdd vdd vss vss gf180mcu_fd_sc_mcu7t5v0__fillcap_16
XFILLER_0_49_156 vdd vdd vss vss gf180mcu_fd_sc_mcu7t5v0__fill_1
X_2019_ _0136_ clknet_4_1_0_clk tt_um_algofoogle_vga_spi_rom.vga_spi_rom.data_buffer\[124\]
+ vdd vdd vss vss gf180mcu_fd_sc_mcu7t5v0__dffnq_1
XANTENNA__1363__A1 _0380_ vdd vdd vss vss gf180mcu_fd_sc_mcu7t5v0__antenna
XFILLER_0_55_148 vdd vdd vss vss gf180mcu_fd_sc_mcu7t5v0__fillcap_32
XFILLER_0_36_340 vdd vdd vss vss gf180mcu_fd_sc_mcu7t5v0__fill_2
XFILLER_0_51_321 vdd vdd vss vss gf180mcu_fd_sc_mcu7t5v0__fillcap_4
XFILLER_0_36_384 vdd vdd vss vss gf180mcu_fd_sc_mcu7t5v0__fill_1
XTAP_TAPCELL_ROW_11_187 vdd vss gf180mcu_fd_sc_mcu7t5v0__filltie
X_1252_ _0560_ _0646_ _0653_ _0654_ vdd vdd vss vss gf180mcu_fd_sc_mcu7t5v0__or3_1
X_1321_ _0494_ tt_um_algofoogle_vga_spi_rom.vga_spi_rom.data_buffer\[106\] _0723_
+ vdd vdd vss vss gf180mcu_fd_sc_mcu7t5v0__nand2_1
XFILLER_0_59_410 vdd vdd vss vss gf180mcu_fd_sc_mcu7t5v0__fillcap_8
XFILLER_0_46_115 vdd vdd vss vss gf180mcu_fd_sc_mcu7t5v0__fill_1
X_1183_ _0379_ _0585_ vdd vdd vss vss gf180mcu_fd_sc_mcu7t5v0__buf_1
XFILLER_0_24_84 vdd vdd vss vss gf180mcu_fd_sc_mcu7t5v0__fill_1
XTAP_TAPCELL_ROW_19_232 vdd vss gf180mcu_fd_sc_mcu7t5v0__filltie
XFILLER_0_19_307 vdd vdd vss vss gf180mcu_fd_sc_mcu7t5v0__fill_2
XPHY_EDGE_ROW_49_Left_109 vdd vss gf180mcu_fd_sc_mcu7t5v0__endcap
XFILLER_0_42_321 vdd vdd vss vss gf180mcu_fd_sc_mcu7t5v0__fill_1
XFILLER_0_40_72 vdd vdd vss vss gf180mcu_fd_sc_mcu7t5v0__fill_2
XFILLER_0_40_50 vdd vdd vss vss gf180mcu_fd_sc_mcu7t5v0__fillcap_4
XFILLER_0_27_362 vdd vdd vss vss gf180mcu_fd_sc_mcu7t5v0__fill_1
X_0967_ tt_um_algofoogle_vga_spi_rom.vga_spi_rom.quad _0376_ vdd vdd vss vss gf180mcu_fd_sc_mcu7t5v0__clkbuf_1
XPHY_EDGE_ROW_58_Left_118 vdd vss gf180mcu_fd_sc_mcu7t5v0__endcap
XFILLER_0_57_2 vdd vdd vss vss gf180mcu_fd_sc_mcu7t5v0__fillcap_64
X_1519_ _0899_ _0016_ vdd vdd vss vss gf180mcu_fd_sc_mcu7t5v0__clkbuf_1
XFILLER_0_42_387 vdd vdd vss vss gf180mcu_fd_sc_mcu7t5v0__fill_2
XPHY_EDGE_ROW_12_Right_12 vdd vss gf180mcu_fd_sc_mcu7t5v0__endcap
XPHY_EDGE_ROW_21_Right_21 vdd vss gf180mcu_fd_sc_mcu7t5v0__endcap
XFILLER_0_4_50 vdd vdd vss vss gf180mcu_fd_sc_mcu7t5v0__fill_2
XFILLER_0_52_107 vdd vdd vss vss gf180mcu_fd_sc_mcu7t5v0__fillcap_32
XTAP_TAPCELL_ROW_25_268 vdd vss gf180mcu_fd_sc_mcu7t5v0__filltie
XFILLER_0_33_321 vdd vdd vss vss gf180mcu_fd_sc_mcu7t5v0__fillcap_8
XPHY_EDGE_ROW_30_Right_30 vdd vss gf180mcu_fd_sc_mcu7t5v0__endcap
XANTENNA__1336__A1 _0659_ vdd vdd vss vss gf180mcu_fd_sc_mcu7t5v0__antenna
X_1870_ _0375_ _0335_ _0161_ vdd vdd vss vss gf180mcu_fd_sc_mcu7t5v0__nor2_1
XANTENNA__1327__A1 _0494_ vdd vdd vss vss gf180mcu_fd_sc_mcu7t5v0__antenna
XFILLER_0_24_376 vdd vdd vss vss gf180mcu_fd_sc_mcu7t5v0__fill_1
XFILLER_0_24_387 vdd vdd vss vss gf180mcu_fd_sc_mcu7t5v0__fill_2
XANTENNA__1887__CLK clknet_4_2_0_clk vdd vdd vss vss gf180mcu_fd_sc_mcu7t5v0__antenna
XFILLER_0_10_53 vdd vdd vss vss gf180mcu_fd_sc_mcu7t5v0__fillcap_4
X_1166_ _0431_ _0568_ vdd vdd vss vss gf180mcu_fd_sc_mcu7t5v0__clkbuf_2
X_1304_ _0364_ tt_um_algofoogle_vga_spi_rom.vga_spi_rom.data_buffer\[114\] _0704_
+ _0705_ _0706_ vdd vdd vss vss gf180mcu_fd_sc_mcu7t5v0__oai211_1
X_1235_ _0418_ _0453_ _0637_ vdd vdd vss vss gf180mcu_fd_sc_mcu7t5v0__nand2_2
XFILLER_0_59_240 vdd vdd vss vss gf180mcu_fd_sc_mcu7t5v0__fillcap_4
XFILLER_0_34_107 vdd vdd vss vss gf180mcu_fd_sc_mcu7t5v0__fillcap_16
XTAP_TAPCELL_ROW_22_249 vdd vss gf180mcu_fd_sc_mcu7t5v0__filltie
X_1097_ _0401_ _0502_ _0504_ _0505_ vdd vdd vss vss gf180mcu_fd_sc_mcu7t5v0__oai21_1
XFILLER_0_19_126 vdd vdd vss vss gf180mcu_fd_sc_mcu7t5v0__fill_2
XFILLER_0_34_129 vdd vdd vss vss gf180mcu_fd_sc_mcu7t5v0__fill_1
X_1999_ _0116_ clknet_4_4_0_clk tt_um_algofoogle_vga_spi_rom.vga_spi_rom.data_buffer\[104\]
+ vdd vdd vss vss gf180mcu_fd_sc_mcu7t5v0__dffnq_1
XTAP_TAPCELL_ROW_30_293 vdd vss gf180mcu_fd_sc_mcu7t5v0__filltie
XFILLER_0_27_192 vdd vdd vss vss gf180mcu_fd_sc_mcu7t5v0__fillcap_8
XFILLER_0_15_343 vdd vdd vss vss gf180mcu_fd_sc_mcu7t5v0__fillcap_4
XANTENNA__2042__CLK clknet_4_11_0_clk vdd vdd vss vss gf180mcu_fd_sc_mcu7t5v0__antenna
XFILLER_0_31_19 vdd vdd vss vss gf180mcu_fd_sc_mcu7t5v0__fill_2
XANTENNA_output12_I net12 vdd vdd vss vss gf180mcu_fd_sc_mcu7t5v0__antenna
Xclkbuf_4_11_0_clk clknet_0_clk clknet_4_11_0_clk vdd vdd vss vss gf180mcu_fd_sc_mcu7t5v0__clkbuf_8
X_1020_ tt_um_algofoogle_vga_spi_rom.vga_spi_rom.vga_sync_vsr.o_vpos\[3\] _0426_ _0428_
+ _0429_ vdd vdd vss vss gf180mcu_fd_sc_mcu7t5v0__oai21_1
X_1922_ _0039_ clknet_4_15_0_clk tt_um_algofoogle_vga_spi_rom.vga_spi_rom.data_buffer\[27\]
+ vdd vdd vss vss gf180mcu_fd_sc_mcu7t5v0__dffnq_1
X_1853_ _0326_ _0799_ _0329_ vdd vdd vss vss gf180mcu_fd_sc_mcu7t5v0__and2_1
XFILLER_0_16_107 vdd vdd vss vss gf180mcu_fd_sc_mcu7t5v0__fillcap_8
X_1784_ tt_um_algofoogle_vga_spi_rom.vga_spi_rom.data_buffer\[116\] tt_um_algofoogle_vga_spi_rom.vga_spi_rom.data_buffer\[115\]
+ _0281_ _0284_ vdd vdd vss vss gf180mcu_fd_sc_mcu7t5v0__mux2_2
XFILLER_0_21_74 vdd vdd vss vss gf180mcu_fd_sc_mcu7t5v0__fill_1
X_1149_ _0549_ _0551_ _0543_ _0552_ vdd vdd vss vss gf180mcu_fd_sc_mcu7t5v0__aoi21_1
X_1218_ _0426_ _0620_ vdd vdd vss vss gf180mcu_fd_sc_mcu7t5v0__clkbuf_3
XFILLER_0_7_384 vdd vdd vss vss gf180mcu_fd_sc_mcu7t5v0__fillcap_8
XFILLER_0_50_419 vdd vdd vss vss gf180mcu_fd_sc_mcu7t5v0__fill_2
XFILLER_0_38_232 vdd vdd vss vss gf180mcu_fd_sc_mcu7t5v0__fill_2
XFILLER_0_53_279 vdd vdd vss vss gf180mcu_fd_sc_mcu7t5v0__fill_1
XFILLER_0_41_408 vdd vdd vss vss gf180mcu_fd_sc_mcu7t5v0__fillcap_8
XTAP_TAPCELL_ROW_41_355 vdd vss gf180mcu_fd_sc_mcu7t5v0__filltie
XFILLER_0_21_121 vdd vdd vss vss gf180mcu_fd_sc_mcu7t5v0__fill_2
XTAP_TAPCELL_ROW_49_400 vdd vss gf180mcu_fd_sc_mcu7t5v0__filltie
X_1003_ _0352_ _0405_ _0409_ _0411_ _0412_ vdd vdd vss vss gf180mcu_fd_sc_mcu7t5v0__nand4_1
XFILLER_0_44_202 vdd vdd vss vss gf180mcu_fd_sc_mcu7t5v0__fill_1
X_1905_ _0022_ clknet_4_6_0_clk tt_um_algofoogle_vga_spi_rom.vga_spi_rom.data_buffer\[10\]
+ vdd vdd vss vss gf180mcu_fd_sc_mcu7t5v0__dffnq_1
XFILLER_0_32_73 vdd vdd vss vss gf180mcu_fd_sc_mcu7t5v0__fill_1
XFILLER_0_29_298 vdd vdd vss vss gf180mcu_fd_sc_mcu7t5v0__fillcap_4
XFILLER_0_8_148 vdd vdd vss vss gf180mcu_fd_sc_mcu7t5v0__fill_1
XFILLER_0_17_416 vdd vdd vss vss gf180mcu_fd_sc_mcu7t5v0__fillcap_4
XFILLER_0_32_419 vdd vdd vss vss gf180mcu_fd_sc_mcu7t5v0__fill_2
X_1698_ tt_um_algofoogle_vga_spi_rom.vga_spi_rom.data_buffer\[79\] tt_um_algofoogle_vga_spi_rom.vga_spi_rom.data_buffer\[78\]
+ _0231_ _0235_ vdd vdd vss vss gf180mcu_fd_sc_mcu7t5v0__mux2_2
X_1767_ tt_um_algofoogle_vga_spi_rom.vga_spi_rom.data_buffer\[108\] tt_um_algofoogle_vga_spi_rom.vga_spi_rom.data_buffer\[107\]
+ _0274_ _0275_ vdd vdd vss vss gf180mcu_fd_sc_mcu7t5v0__mux2_2
XFILLER_0_4_387 vdd vdd vss vss gf180mcu_fd_sc_mcu7t5v0__fill_2
XFILLER_0_4_321 vdd vdd vss vss gf180mcu_fd_sc_mcu7t5v0__fill_2
XPHY_EDGE_ROW_6_Right_6 vdd vss gf180mcu_fd_sc_mcu7t5v0__endcap
XFILLER_0_12_187 vdd vdd vss vss gf180mcu_fd_sc_mcu7t5v0__fillcap_8
X_1836_ _0696_ _0817_ _0443_ _0316_ vdd vdd vss vss gf180mcu_fd_sc_mcu7t5v0__nand3_1
XANTENNA__1871__I _0332_ vdd vdd vss vss gf180mcu_fd_sc_mcu7t5v0__antenna
XFILLER_0_50_238 vdd vdd vss vss gf180mcu_fd_sc_mcu7t5v0__fillcap_4
XANTENNA__1267__B _0604_ vdd vdd vss vss gf180mcu_fd_sc_mcu7t5v0__antenna
Xoutput21 net21 uo_out[3] vdd vdd vss vss gf180mcu_fd_sc_mcu7t5v0__buf_8
XPHY_EDGE_ROW_59_Right_59 vdd vss gf180mcu_fd_sc_mcu7t5v0__endcap
X_1552_ tt_um_algofoogle_vga_spi_rom.vga_spi_rom.data_buffer\[17\] tt_um_algofoogle_vga_spi_rom.vga_spi_rom.data_buffer\[16\]
+ _0918_ _0920_ vdd vdd vss vss gf180mcu_fd_sc_mcu7t5v0__mux2_2
XFILLER_0_41_216 vdd vdd vss vss gf180mcu_fd_sc_mcu7t5v0__fill_1
XFILLER_0_41_205 vdd vdd vss vss gf180mcu_fd_sc_mcu7t5v0__fillcap_4
X_1621_ _0191_ _0057_ vdd vdd vss vss gf180mcu_fd_sc_mcu7t5v0__clkbuf_1
XFILLER_0_14_419 vdd vdd vss vss gf180mcu_fd_sc_mcu7t5v0__fill_2
XANTENNA__1691__I _0230_ vdd vdd vss vss gf180mcu_fd_sc_mcu7t5v0__antenna
X_1483_ _0859_ _0870_ _0009_ vdd vdd vss vss gf180mcu_fd_sc_mcu7t5v0__nor2_1
XANTENNA_input3_I ui_in[1] vdd vdd vss vss gf180mcu_fd_sc_mcu7t5v0__antenna
XTAP_TAPCELL_ROW_52_417 vdd vss gf180mcu_fd_sc_mcu7t5v0__filltie
XFILLER_0_43_72 vdd vdd vss vss gf180mcu_fd_sc_mcu7t5v0__fill_2
X_2035_ _0152_ clknet_4_8_0_clk tt_um_algofoogle_vga_spi_rom.r_rgb\[2\] vdd vdd vss
+ vss gf180mcu_fd_sc_mcu7t5v0__dffq_1
XFILLER_0_32_249 vdd vdd vss vss gf180mcu_fd_sc_mcu7t5v0__fill_1
XFILLER_0_25_290 vdd vdd vss vss gf180mcu_fd_sc_mcu7t5v0__fill_1
X_1819_ tt_um_algofoogle_vga_spi_rom.vga_spi_rom.data_buffer\[131\] tt_um_algofoogle_vga_spi_rom.vga_spi_rom.data_buffer\[130\]
+ _0302_ _0304_ vdd vdd vss vss gf180mcu_fd_sc_mcu7t5v0__mux2_2
XFILLER_0_7_72 vdd vdd vss vss gf180mcu_fd_sc_mcu7t5v0__fill_2