* NGSPICE file created from top_solo_squash.ext - technology: gf180mcuD

* Black-box entry subcircuit for gf180mcu_fd_sc_mcu7t5v0__filltie abstract view
.subckt gf180mcu_fd_sc_mcu7t5v0__filltie VDD VSS
.ends

* Black-box entry subcircuit for gf180mcu_fd_sc_mcu7t5v0__fill_2 abstract view
.subckt gf180mcu_fd_sc_mcu7t5v0__fill_2 VDD VNW VPW VSS
.ends

* Black-box entry subcircuit for gf180mcu_fd_sc_mcu7t5v0__fillcap_4 abstract view
.subckt gf180mcu_fd_sc_mcu7t5v0__fillcap_4 VDD VNW VPW VSS
.ends

* Black-box entry subcircuit for gf180mcu_fd_sc_mcu7t5v0__endcap abstract view
.subckt gf180mcu_fd_sc_mcu7t5v0__endcap VDD VSS
.ends

* Black-box entry subcircuit for gf180mcu_fd_sc_mcu7t5v0__fillcap_16 abstract view
.subckt gf180mcu_fd_sc_mcu7t5v0__fillcap_16 VDD VNW VPW VSS
.ends

* Black-box entry subcircuit for gf180mcu_fd_sc_mcu7t5v0__nand2_1 abstract view
.subckt gf180mcu_fd_sc_mcu7t5v0__nand2_1 A1 A2 ZN VDD VNW VPW VSS
.ends

* Black-box entry subcircuit for gf180mcu_fd_sc_mcu7t5v0__antenna abstract view
.subckt gf180mcu_fd_sc_mcu7t5v0__antenna I VDD VNW VPW VSS
.ends

* Black-box entry subcircuit for gf180mcu_fd_sc_mcu7t5v0__xor2_1 abstract view
.subckt gf180mcu_fd_sc_mcu7t5v0__xor2_1 A1 A2 Z VDD VNW VPW VSS
.ends

* Black-box entry subcircuit for gf180mcu_fd_sc_mcu7t5v0__nor2_1 abstract view
.subckt gf180mcu_fd_sc_mcu7t5v0__nor2_1 A1 A2 ZN VDD VNW VPW VSS
.ends

* Black-box entry subcircuit for gf180mcu_fd_sc_mcu7t5v0__fillcap_8 abstract view
.subckt gf180mcu_fd_sc_mcu7t5v0__fillcap_8 VDD VNW VPW VSS
.ends

* Black-box entry subcircuit for gf180mcu_fd_sc_mcu7t5v0__fill_1 abstract view
.subckt gf180mcu_fd_sc_mcu7t5v0__fill_1 VDD VNW VPW VSS
.ends

* Black-box entry subcircuit for gf180mcu_fd_sc_mcu7t5v0__aoi21_1 abstract view
.subckt gf180mcu_fd_sc_mcu7t5v0__aoi21_1 A1 A2 B ZN VDD VNW VPW VSS
.ends

* Black-box entry subcircuit for gf180mcu_fd_sc_mcu7t5v0__fillcap_32 abstract view
.subckt gf180mcu_fd_sc_mcu7t5v0__fillcap_32 VDD VNW VPW VSS
.ends

* Black-box entry subcircuit for gf180mcu_fd_sc_mcu7t5v0__buf_1 abstract view
.subckt gf180mcu_fd_sc_mcu7t5v0__buf_1 I Z VDD VNW VPW VSS
.ends

* Black-box entry subcircuit for gf180mcu_fd_sc_mcu7t5v0__dffq_1 abstract view
.subckt gf180mcu_fd_sc_mcu7t5v0__dffq_1 D CLK Q VDD VNW VPW VSS
.ends

* Black-box entry subcircuit for gf180mcu_fd_sc_mcu7t5v0__oai21_1 abstract view
.subckt gf180mcu_fd_sc_mcu7t5v0__oai21_1 A1 A2 B ZN VDD VNW VPW VSS
.ends

* Black-box entry subcircuit for gf180mcu_fd_sc_mcu7t5v0__clkbuf_1 abstract view
.subckt gf180mcu_fd_sc_mcu7t5v0__clkbuf_1 I Z VDD VNW VPW VSS
.ends

* Black-box entry subcircuit for gf180mcu_fd_sc_mcu7t5v0__clkinv_1 abstract view
.subckt gf180mcu_fd_sc_mcu7t5v0__clkinv_1 I ZN VDD VNW VPW VSS
.ends

* Black-box entry subcircuit for gf180mcu_fd_sc_mcu7t5v0__fillcap_64 abstract view
.subckt gf180mcu_fd_sc_mcu7t5v0__fillcap_64 VDD VNW VPW VSS
.ends

* Black-box entry subcircuit for gf180mcu_fd_sc_mcu7t5v0__clkbuf_16 abstract view
.subckt gf180mcu_fd_sc_mcu7t5v0__clkbuf_16 I Z VDD VNW VPW VSS
.ends

* Black-box entry subcircuit for gf180mcu_fd_sc_mcu7t5v0__oai31_1 abstract view
.subckt gf180mcu_fd_sc_mcu7t5v0__oai31_1 A1 A2 A3 B ZN VDD VNW VPW VSS
.ends

* Black-box entry subcircuit for gf180mcu_fd_sc_mcu7t5v0__xnor2_1 abstract view
.subckt gf180mcu_fd_sc_mcu7t5v0__xnor2_1 A1 A2 ZN VDD VNW VPW VSS
.ends

* Black-box entry subcircuit for gf180mcu_fd_sc_mcu7t5v0__aoi22_1 abstract view
.subckt gf180mcu_fd_sc_mcu7t5v0__aoi22_1 A1 A2 B1 B2 ZN VDD VNW VPW VSS
.ends

* Black-box entry subcircuit for gf180mcu_fd_sc_mcu7t5v0__oai211_1 abstract view
.subckt gf180mcu_fd_sc_mcu7t5v0__oai211_1 A1 A2 B C ZN VDD VNW VPW VSS
.ends

* Black-box entry subcircuit for gf180mcu_fd_sc_mcu7t5v0__inv_1 abstract view
.subckt gf180mcu_fd_sc_mcu7t5v0__inv_1 I ZN VDD VNW VPW VSS
.ends

* Black-box entry subcircuit for gf180mcu_fd_sc_mcu7t5v0__nor3_1 abstract view
.subckt gf180mcu_fd_sc_mcu7t5v0__nor3_1 A1 A2 A3 ZN VDD VNW VPW VSS
.ends

* Black-box entry subcircuit for gf180mcu_fd_sc_mcu7t5v0__and3_1 abstract view
.subckt gf180mcu_fd_sc_mcu7t5v0__and3_1 A1 A2 A3 Z VDD VNW VPW VSS
.ends

* Black-box entry subcircuit for gf180mcu_fd_sc_mcu7t5v0__clkbuf_2 abstract view
.subckt gf180mcu_fd_sc_mcu7t5v0__clkbuf_2 I Z VDD VNW VPW VSS
.ends

* Black-box entry subcircuit for gf180mcu_fd_sc_mcu7t5v0__dlyc_1 abstract view
.subckt gf180mcu_fd_sc_mcu7t5v0__dlyc_1 I Z VDD VNW VPW VSS
.ends

* Black-box entry subcircuit for gf180mcu_fd_sc_mcu7t5v0__aoi221_1 abstract view
.subckt gf180mcu_fd_sc_mcu7t5v0__aoi221_1 A1 A2 B1 B2 C ZN VDD VNW VPW VSS
.ends

* Black-box entry subcircuit for gf180mcu_fd_sc_mcu7t5v0__xor3_1 abstract view
.subckt gf180mcu_fd_sc_mcu7t5v0__xor3_1 A1 A2 A3 Z VDD VNW VPW VSS
.ends

* Black-box entry subcircuit for gf180mcu_fd_sc_mcu7t5v0__buf_8 abstract view
.subckt gf180mcu_fd_sc_mcu7t5v0__buf_8 I Z VDD VNW VPW VSS
.ends

* Black-box entry subcircuit for gf180mcu_fd_sc_mcu7t5v0__aoi211_1 abstract view
.subckt gf180mcu_fd_sc_mcu7t5v0__aoi211_1 A1 A2 B C ZN VDD VNW VPW VSS
.ends

* Black-box entry subcircuit for gf180mcu_fd_sc_mcu7t5v0__or2_1 abstract view
.subckt gf180mcu_fd_sc_mcu7t5v0__or2_1 A1 A2 Z VDD VNW VPW VSS
.ends

* Black-box entry subcircuit for gf180mcu_fd_sc_mcu7t5v0__and2_1 abstract view
.subckt gf180mcu_fd_sc_mcu7t5v0__and2_1 A1 A2 Z VDD VNW VPW VSS
.ends

* Black-box entry subcircuit for gf180mcu_fd_sc_mcu7t5v0__nand3_1 abstract view
.subckt gf180mcu_fd_sc_mcu7t5v0__nand3_1 A1 A2 A3 ZN VDD VNW VPW VSS
.ends

* Black-box entry subcircuit for gf180mcu_fd_sc_mcu7t5v0__nor4_4 abstract view
.subckt gf180mcu_fd_sc_mcu7t5v0__nor4_4 A1 A2 A3 A4 ZN VDD VNW VPW VSS
.ends

* Black-box entry subcircuit for gf180mcu_fd_sc_mcu7t5v0__dlyb_1 abstract view
.subckt gf180mcu_fd_sc_mcu7t5v0__dlyb_1 I Z VDD VNW VPW VSS
.ends

* Black-box entry subcircuit for gf180mcu_fd_sc_mcu7t5v0__aoi21_2 abstract view
.subckt gf180mcu_fd_sc_mcu7t5v0__aoi21_2 A1 A2 B ZN VDD VNW VPW VSS
.ends

* Black-box entry subcircuit for gf180mcu_fd_sc_mcu7t5v0__nor4_2 abstract view
.subckt gf180mcu_fd_sc_mcu7t5v0__nor4_2 A1 A2 A3 A4 ZN VDD VNW VPW VSS
.ends

* Black-box entry subcircuit for gf180mcu_fd_sc_mcu7t5v0__or3_1 abstract view
.subckt gf180mcu_fd_sc_mcu7t5v0__or3_1 A1 A2 A3 Z VDD VNW VPW VSS
.ends

* Black-box entry subcircuit for gf180mcu_fd_sc_mcu7t5v0__and4_1 abstract view
.subckt gf180mcu_fd_sc_mcu7t5v0__and4_1 A1 A2 A3 A4 Z VDD VNW VPW VSS
.ends

* Black-box entry subcircuit for gf180mcu_fd_sc_mcu7t5v0__clkinv_2 abstract view
.subckt gf180mcu_fd_sc_mcu7t5v0__clkinv_2 I ZN VDD VNW VPW VSS
.ends

* Black-box entry subcircuit for gf180mcu_fd_sc_mcu7t5v0__aoi221_2 abstract view
.subckt gf180mcu_fd_sc_mcu7t5v0__aoi221_2 A1 A2 B1 B2 C ZN VDD VNW VPW VSS
.ends

* Black-box entry subcircuit for gf180mcu_fd_sc_mcu7t5v0__mux2_2 abstract view
.subckt gf180mcu_fd_sc_mcu7t5v0__mux2_2 I0 I1 S Z VDD VNW VPW VSS
.ends

* Black-box entry subcircuit for gf180mcu_fd_sc_mcu7t5v0__buf_2 abstract view
.subckt gf180mcu_fd_sc_mcu7t5v0__buf_2 I Z VDD VNW VPW VSS
.ends

* Black-box entry subcircuit for gf180mcu_fd_sc_mcu7t5v0__oai31_2 abstract view
.subckt gf180mcu_fd_sc_mcu7t5v0__oai31_2 A1 A2 A3 B ZN VDD VNW VPW VSS
.ends

* Black-box entry subcircuit for gf180mcu_fd_sc_mcu7t5v0__oai22_1 abstract view
.subckt gf180mcu_fd_sc_mcu7t5v0__oai22_1 A1 A2 B1 B2 ZN VDD VNW VPW VSS
.ends

* Black-box entry subcircuit for gf180mcu_fd_sc_mcu7t5v0__nor4_1 abstract view
.subckt gf180mcu_fd_sc_mcu7t5v0__nor4_1 A1 A2 A3 A4 ZN VDD VNW VPW VSS
.ends

* Black-box entry subcircuit for gf180mcu_fd_sc_mcu7t5v0__aoi211_2 abstract view
.subckt gf180mcu_fd_sc_mcu7t5v0__aoi211_2 A1 A2 B C ZN VDD VNW VPW VSS
.ends

* Black-box entry subcircuit for gf180mcu_fd_sc_mcu7t5v0__or4_1 abstract view
.subckt gf180mcu_fd_sc_mcu7t5v0__or4_1 A1 A2 A3 A4 Z VDD VNW VPW VSS
.ends

* Black-box entry subcircuit for gf180mcu_fd_sc_mcu7t5v0__nand4_1 abstract view
.subckt gf180mcu_fd_sc_mcu7t5v0__nand4_1 A1 A2 A3 A4 ZN VDD VNW VPW VSS
.ends

* Black-box entry subcircuit for gf180mcu_fd_sc_mcu7t5v0__nor2_2 abstract view
.subckt gf180mcu_fd_sc_mcu7t5v0__nor2_2 A1 A2 ZN VDD VNW VPW VSS
.ends

* Black-box entry subcircuit for gf180mcu_fd_sc_mcu7t5v0__nor3_2 abstract view
.subckt gf180mcu_fd_sc_mcu7t5v0__nor3_2 A1 A2 A3 ZN VDD VNW VPW VSS
.ends

* Black-box entry subcircuit for gf180mcu_fd_sc_mcu7t5v0__nand3_2 abstract view
.subckt gf180mcu_fd_sc_mcu7t5v0__nand3_2 A1 A2 A3 ZN VDD VNW VPW VSS
.ends

* Black-box entry subcircuit for gf180mcu_fd_sc_mcu7t5v0__oai22_2 abstract view
.subckt gf180mcu_fd_sc_mcu7t5v0__oai22_2 A1 A2 B1 B2 ZN VDD VNW VPW VSS
.ends

* Black-box entry subcircuit for gf180mcu_fd_sc_mcu7t5v0__nand2_2 abstract view
.subckt gf180mcu_fd_sc_mcu7t5v0__nand2_2 A1 A2 ZN VDD VNW VPW VSS
.ends

* Black-box entry subcircuit for gf180mcu_fd_sc_mcu7t5v0__dffq_2 abstract view
.subckt gf180mcu_fd_sc_mcu7t5v0__dffq_2 D CLK Q VDD VNW VPW VSS
.ends

* Black-box entry subcircuit for gf180mcu_fd_sc_mcu7t5v0__tiel abstract view
.subckt gf180mcu_fd_sc_mcu7t5v0__tiel ZN VDD VNW VPW VSS
.ends

* Black-box entry subcircuit for gf180mcu_fd_sc_mcu7t5v0__or4_2 abstract view
.subckt gf180mcu_fd_sc_mcu7t5v0__or4_2 A1 A2 A3 A4 Z VDD VNW VPW VSS
.ends

* Black-box entry subcircuit for gf180mcu_fd_sc_mcu7t5v0__xor2_2 abstract view
.subckt gf180mcu_fd_sc_mcu7t5v0__xor2_2 A1 A2 Z VDD VNW VPW VSS
.ends

* Black-box entry subcircuit for gf180mcu_fd_sc_mcu7t5v0__oai21_2 abstract view
.subckt gf180mcu_fd_sc_mcu7t5v0__oai21_2 A1 A2 B ZN VDD VNW VPW VSS
.ends

* Black-box entry subcircuit for gf180mcu_fd_sc_mcu7t5v0__aoi22_2 abstract view
.subckt gf180mcu_fd_sc_mcu7t5v0__aoi22_2 A1 A2 B1 B2 ZN VDD VNW VPW VSS
.ends

.subckt top_solo_squash clk gpio_ready io_in[0] io_in[10] io_in[11] io_in[12] io_in[1]
+ io_in[2] io_in[3] io_in[4] io_in[5] io_in[6] io_in[7] io_in[8] io_in[9] io_out[0]
+ io_out[10] io_out[11] io_out[12] io_out[1] io_out[2] io_out[3] io_out[5] io_out[6]
+ io_out[7] io_out[8] io_out[9] rst vdd vss io_out[4]
XTAP_TAPCELL_ROW_17_180 vdd vss gf180mcu_fd_sc_mcu7t5v0__filltie
XFILLER_0_17_222 vdd vdd vss vss gf180mcu_fd_sc_mcu7t5v0__fill_2
XFILLER_0_32_247 vdd vdd vss vss gf180mcu_fd_sc_mcu7t5v0__fillcap_4
XFILLER_0_17_277 vdd vdd vss vss gf180mcu_fd_sc_mcu7t5v0__fill_2
XPHY_EDGE_ROW_37_Left_86 vdd vss gf180mcu_fd_sc_mcu7t5v0__endcap
XFILLER_0_46_317 vdd vdd vss vss gf180mcu_fd_sc_mcu7t5v0__fillcap_16
X_0985_ _0175_ _0443_ _0450_ vdd vdd vss vss gf180mcu_fd_sc_mcu7t5v0__nand2_1
XANTENNA_clkbuf_3_2__f_clk_I clknet_0_clk vdd vdd vss vss gf180mcu_fd_sc_mcu7t5v0__antenna
XFILLER_0_14_203 vdd vdd vss vss gf180mcu_fd_sc_mcu7t5v0__fillcap_16
XFILLER_0_14_247 vdd vdd vss vss gf180mcu_fd_sc_mcu7t5v0__fill_2
XFILLER_0_14_269 vdd vdd vss vss gf180mcu_fd_sc_mcu7t5v0__fill_2
XFILLER_0_38_92 vdd vdd vss vss gf180mcu_fd_sc_mcu7t5v0__fillcap_4
XFILLER_0_22_291 vdd vdd vss vss gf180mcu_fd_sc_mcu7t5v0__fillcap_16
XFILLER_0_9_296 vdd vdd vss vss gf180mcu_fd_sc_mcu7t5v0__fill_2
XANTENNA__1127__CLK clknet_3_6__leaf_clk vdd vdd vss vss gf180mcu_fd_sc_mcu7t5v0__antenna
XTAP_TAPCELL_ROW_20_197 vdd vss gf180mcu_fd_sc_mcu7t5v0__filltie
XTAP_TAPCELL_ROW_28_231 vdd vss gf180mcu_fd_sc_mcu7t5v0__filltie
XFILLER_0_28_317 vdd vdd vss vss gf180mcu_fd_sc_mcu7t5v0__fillcap_16
X_0770_ _0255_ _0257_ _0258_ vdd vdd vss vss gf180mcu_fd_sc_mcu7t5v0__xor2_1
XTAP_TAPCELL_ROW_11_153 vdd vss gf180mcu_fd_sc_mcu7t5v0__filltie
XTAP_TAPCELL_ROW_34_256 vdd vss gf180mcu_fd_sc_mcu7t5v0__filltie
X_0968_ _0064_ _0300_ _0434_ vdd vdd vss vss gf180mcu_fd_sc_mcu7t5v0__nand2_1
X_0899_ _0353_ _0371_ _0024_ vdd vdd vss vss gf180mcu_fd_sc_mcu7t5v0__nor2_1
XFILLER_0_6_299 vdd vdd vss vss gf180mcu_fd_sc_mcu7t5v0__fillcap_8
XFILLER_0_37_158 vdd vdd vss vss gf180mcu_fd_sc_mcu7t5v0__fill_1
XTAP_TAPCELL_ROW_48_326 vdd vss gf180mcu_fd_sc_mcu7t5v0__filltie
XFILLER_0_28_136 vdd vdd vss vss gf180mcu_fd_sc_mcu7t5v0__fill_2
X_0822_ _0303_ _0305_ _0306_ vdd vdd vss vss gf180mcu_fd_sc_mcu7t5v0__nand2_1
X_0684_ _0168_ _0178_ _0181_ _0182_ vdd vdd vss vss gf180mcu_fd_sc_mcu7t5v0__aoi21_1
X_0753_ _0241_ _0220_ _0242_ vdd vdd vss vss gf180mcu_fd_sc_mcu7t5v0__nor2_1
XPHY_EDGE_ROW_24_Left_73 vdd vss gf180mcu_fd_sc_mcu7t5v0__endcap
XFILLER_0_19_72 vdd vdd vss vss gf180mcu_fd_sc_mcu7t5v0__fillcap_32
X_1098_ _0543_ _0544_ vdd vdd vss vss gf180mcu_fd_sc_mcu7t5v0__buf_1
X_1167_ _0054_ clknet_3_3__leaf_clk solo_squash.v\[7\] vdd vdd vss vss gf180mcu_fd_sc_mcu7t5v0__dffq_1
XTAP_TAPCELL_ROW_22_204 vdd vss gf180mcu_fd_sc_mcu7t5v0__filltie
XFILLER_0_42_172 vdd vdd vss vss gf180mcu_fd_sc_mcu7t5v0__fill_2
XFILLER_0_19_158 vdd vdd vss vss gf180mcu_fd_sc_mcu7t5v0__fillcap_4
XTAP_TAPCELL_ROW_45_307 vdd vss gf180mcu_fd_sc_mcu7t5v0__filltie
XFILLER_0_31_18 vdd vdd vss vss gf180mcu_fd_sc_mcu7t5v0__fill_2
XFILLER_0_0_206 vdd vdd vss vss gf180mcu_fd_sc_mcu7t5v0__fillcap_32
X_1021_ _0090_ _0324_ _0483_ vdd vdd vss vss gf180mcu_fd_sc_mcu7t5v0__xor2_1
X_0805_ _0234_ _0287_ _0289_ _0290_ vdd vdd vss vss gf180mcu_fd_sc_mcu7t5v0__oai21_1
X_0667_ solo_squash.ballY\[6\] _0165_ vdd vdd vss vss gf180mcu_fd_sc_mcu7t5v0__clkbuf_1
X_0736_ _0224_ _0221_ _0226_ _0227_ vdd vdd vss vss gf180mcu_fd_sc_mcu7t5v0__oai21_1
XFILLER_0_12_334 vdd vdd vss vss gf180mcu_fd_sc_mcu7t5v0__fillcap_8
X_0598_ _0100_ _0101_ vdd vdd vss vss gf180mcu_fd_sc_mcu7t5v0__clkbuf_1
XFILLER_0_27_2 vdd vdd vss vss gf180mcu_fd_sc_mcu7t5v0__fillcap_4
XFILLER_0_39_209 vdd vdd vss vss gf180mcu_fd_sc_mcu7t5v0__fill_1
XFILLER_0_1_72 vdd vdd vss vss gf180mcu_fd_sc_mcu7t5v0__fill_2
XFILLER_0_26_18 vdd vdd vss vss gf180mcu_fd_sc_mcu7t5v0__fill_2
XANTENNA__0753__A1 _0241_ vdd vdd vss vss gf180mcu_fd_sc_mcu7t5v0__antenna
XFILLER_0_8_103 vdd vdd vss vss gf180mcu_fd_sc_mcu7t5v0__fill_2
XFILLER_0_8_136 vdd vdd vss vss gf180mcu_fd_sc_mcu7t5v0__fill_2
XFILLER_0_8_147 vdd vdd vss vss gf180mcu_fd_sc_mcu7t5v0__fill_1
X_1004_ solo_squash.inBallY _0468_ vdd vdd vss vss gf180mcu_fd_sc_mcu7t5v0__clkinv_1
XANTENNA__1160__CLK clknet_3_0__leaf_clk vdd vdd vss vss gf180mcu_fd_sc_mcu7t5v0__antenna
XANTENNA__1076__B _0439_ vdd vdd vss vss gf180mcu_fd_sc_mcu7t5v0__antenna
X_0719_ _0210_ _0212_ _0003_ vdd vdd vss vss gf180mcu_fd_sc_mcu7t5v0__nor2_1
XPHY_EDGE_ROW_11_Left_60 vdd vss gf180mcu_fd_sc_mcu7t5v0__endcap
XFILLER_0_35_289 vdd vdd vss vss gf180mcu_fd_sc_mcu7t5v0__fill_1
XFILLER_0_35_212 vdd vdd vss vss gf180mcu_fd_sc_mcu7t5v0__fillcap_32
XFILLER_0_5_139 vdd vdd vss vss gf180mcu_fd_sc_mcu7t5v0__fill_1
XFILLER_0_26_223 vdd vdd vss vss gf180mcu_fd_sc_mcu7t5v0__fill_1
XFILLER_0_26_267 vdd vdd vss vss gf180mcu_fd_sc_mcu7t5v0__fill_1
XFILLER_0_27_72 vdd vdd vss vss gf180mcu_fd_sc_mcu7t5v0__fillcap_64
XTAP_TAPCELL_ROW_17_181 vdd vss gf180mcu_fd_sc_mcu7t5v0__filltie
XFILLER_0_32_226 vdd vdd vss vss gf180mcu_fd_sc_mcu7t5v0__fill_1
XANTENNA__0965__A1 _0421_ vdd vdd vss vss gf180mcu_fd_sc_mcu7t5v0__antenna
Xclkbuf_3_6__f_clk clknet_0_clk clknet_3_6__leaf_clk vdd vdd vss vss gf180mcu_fd_sc_mcu7t5v0__clkbuf_16
XFILLER_0_3_18 vdd vdd vss vss gf180mcu_fd_sc_mcu7t5v0__fillcap_8
X_0984_ _0117_ _0174_ _0440_ _0448_ _0449_ vdd vdd vss vss gf180mcu_fd_sc_mcu7t5v0__oai31_1
XFILLER_0_1_153 vdd vdd vss vss gf180mcu_fd_sc_mcu7t5v0__fillcap_8
XFILLER_0_9_220 vdd vdd vss vss gf180mcu_fd_sc_mcu7t5v0__fillcap_4
XTAP_TAPCELL_ROW_28_232 vdd vss gf180mcu_fd_sc_mcu7t5v0__filltie
XTAP_TAPCELL_ROW_11_154 vdd vss gf180mcu_fd_sc_mcu7t5v0__filltie
XTAP_TAPCELL_ROW_34_257 vdd vss gf180mcu_fd_sc_mcu7t5v0__filltie
XFILLER_0_24_73 vdd vdd vss vss gf180mcu_fd_sc_mcu7t5v0__fill_1
XFILLER_0_40_72 vdd vdd vss vss gf180mcu_fd_sc_mcu7t5v0__fill_2
X_0967_ _0063_ _0298_ _0433_ vdd vdd vss vss gf180mcu_fd_sc_mcu7t5v0__xnor2_1
X_0898_ _0365_ _0360_ _0369_ _0370_ _0371_ vdd vdd vss vss gf180mcu_fd_sc_mcu7t5v0__aoi22_1
XFILLER_0_10_251 vdd vdd vss vss gf180mcu_fd_sc_mcu7t5v0__fillcap_16
XPHY_EDGE_ROW_12_Right_12 vdd vss gf180mcu_fd_sc_mcu7t5v0__endcap
XFILLER_0_4_94 vdd vdd vss vss gf180mcu_fd_sc_mcu7t5v0__fillcap_4
XPHY_EDGE_ROW_21_Right_21 vdd vss gf180mcu_fd_sc_mcu7t5v0__endcap
XPHY_EDGE_ROW_30_Right_30 vdd vss gf180mcu_fd_sc_mcu7t5v0__endcap
XTAP_TAPCELL_ROW_48_327 vdd vss gf180mcu_fd_sc_mcu7t5v0__filltie
XFILLER_0_28_104 vdd vdd vss vss gf180mcu_fd_sc_mcu7t5v0__fill_1
XFILLER_0_43_118 vdd vdd vss vss gf180mcu_fd_sc_mcu7t5v0__fillcap_16
XANTENNA__0852__I _0295_ vdd vdd vss vss gf180mcu_fd_sc_mcu7t5v0__antenna
X_0821_ _0235_ _0299_ _0304_ _0301_ _0305_ vdd vdd vss vss gf180mcu_fd_sc_mcu7t5v0__oai211_1
X_0752_ net4 _0241_ vdd vdd vss vss gf180mcu_fd_sc_mcu7t5v0__inv_1
X_0683_ _0166_ _0164_ _0180_ _0181_ vdd vdd vss vss gf180mcu_fd_sc_mcu7t5v0__nor3_1
X_1166_ _0053_ clknet_3_6__leaf_clk solo_squash.v\[6\] vdd vdd vss vss gf180mcu_fd_sc_mcu7t5v0__dffq_1
XANTENNA__1117__CLK clknet_3_0__leaf_clk vdd vdd vss vss gf180mcu_fd_sc_mcu7t5v0__antenna
XFILLER_0_19_62 vdd vdd vss vss gf180mcu_fd_sc_mcu7t5v0__fillcap_8
XFILLER_0_35_83 vdd vdd vss vss gf180mcu_fd_sc_mcu7t5v0__fillcap_16
XFILLER_0_34_107 vdd vdd vss vss gf180mcu_fd_sc_mcu7t5v0__fill_1
X_1097_ solo_squash.v\[4\] _0191_ _0538_ _0543_ vdd vdd vss vss gf180mcu_fd_sc_mcu7t5v0__and3_1
XFILLER_0_19_104 vdd vdd vss vss gf180mcu_fd_sc_mcu7t5v0__fill_2
XFILLER_0_19_137 vdd vdd vss vss gf180mcu_fd_sc_mcu7t5v0__fill_2
XFILLER_0_19_148 vdd vdd vss vss gf180mcu_fd_sc_mcu7t5v0__fill_1
XTAP_TAPCELL_ROW_22_205 vdd vss gf180mcu_fd_sc_mcu7t5v0__filltie
XTAP_TAPCELL_ROW_45_308 vdd vss gf180mcu_fd_sc_mcu7t5v0__filltie
XPHY_EDGE_ROW_41_Left_90 vdd vss gf180mcu_fd_sc_mcu7t5v0__endcap
XFILLER_0_18_170 vdd vdd vss vss gf180mcu_fd_sc_mcu7t5v0__fillcap_4
XFILLER_0_33_162 vdd vdd vss vss gf180mcu_fd_sc_mcu7t5v0__fillcap_8
XFILLER_0_21_302 vdd vdd vss vss gf180mcu_fd_sc_mcu7t5v0__fill_2
X_1020_ _0083_ _0317_ _0482_ vdd vdd vss vss gf180mcu_fd_sc_mcu7t5v0__xor2_1
X_0804_ _0247_ _0288_ _0289_ vdd vdd vss vss gf180mcu_fd_sc_mcu7t5v0__nand2_1
XFILLER_0_16_107 vdd vdd vss vss gf180mcu_fd_sc_mcu7t5v0__fillcap_4
XFILLER_0_21_96 vdd vdd vss vss gf180mcu_fd_sc_mcu7t5v0__fill_1
X_0735_ _0207_ _0226_ vdd vdd vss vss gf180mcu_fd_sc_mcu7t5v0__clkbuf_2
X_0666_ solo_squash.ballY\[7\] _0164_ vdd vdd vss vss gf180mcu_fd_sc_mcu7t5v0__buf_1
X_0597_ solo_squash.h\[2\] _0100_ vdd vdd vss vss gf180mcu_fd_sc_mcu7t5v0__buf_1
X_1149_ _0036_ clknet_3_0__leaf_clk solo_squash.h\[0\] vdd vdd vss vss gf180mcu_fd_sc_mcu7t5v0__dffq_1
XFILLER_0_47_276 vdd vdd vss vss gf180mcu_fd_sc_mcu7t5v0__fillcap_4
Xhold20 io_in[1] net40 vdd vdd vss vss gf180mcu_fd_sc_mcu7t5v0__dlyc_1
XFILLER_0_21_154 vdd vdd vss vss gf180mcu_fd_sc_mcu7t5v0__fill_1
X_1003_ _0461_ _0465_ _0467_ _0168_ _0186_ _0032_ vdd vdd vss vss gf180mcu_fd_sc_mcu7t5v0__aoi221_1
XFILLER_0_29_254 vdd vdd vss vss gf180mcu_fd_sc_mcu7t5v0__fillcap_4
X_0718_ _0208_ _0211_ _0212_ vdd vdd vss vss gf180mcu_fd_sc_mcu7t5v0__nand2_1
XPHY_EDGE_ROW_6_Right_6 vdd vss gf180mcu_fd_sc_mcu7t5v0__endcap
X_0649_ _0090_ _0134_ _0147_ _0148_ vdd vdd vss vss gf180mcu_fd_sc_mcu7t5v0__xor3_1
Xoutput10 net10 io_out[12] vdd vdd vss vss gf180mcu_fd_sc_mcu7t5v0__buf_8
Xoutput8 net8 io_out[10] vdd vdd vss vss gf180mcu_fd_sc_mcu7t5v0__buf_8
XFILLER_0_9_2 vdd vdd vss vss gf180mcu_fd_sc_mcu7t5v0__fillcap_32
XFILLER_0_26_213 vdd vdd vss vss gf180mcu_fd_sc_mcu7t5v0__fillcap_8
XFILLER_0_27_51 vdd vdd vss vss gf180mcu_fd_sc_mcu7t5v0__fillcap_16
XFILLER_0_43_72 vdd vdd vss vss gf180mcu_fd_sc_mcu7t5v0__fillcap_32
XFILLER_0_11_6 vdd vdd vss vss gf180mcu_fd_sc_mcu7t5v0__fill_1
XTAP_TAPCELL_ROW_17_182 vdd vss gf180mcu_fd_sc_mcu7t5v0__filltie
XFILLER_0_17_224 vdd vdd vss vss gf180mcu_fd_sc_mcu7t5v0__fill_1
XFILLER_0_17_279 vdd vdd vss vss gf180mcu_fd_sc_mcu7t5v0__fill_1
XFILLER_0_25_290 vdd vdd vss vss gf180mcu_fd_sc_mcu7t5v0__fill_1
XANTENNA__0708__A2 _0203_ vdd vdd vss vss gf180mcu_fd_sc_mcu7t5v0__antenna
XFILLER_0_31_282 vdd vdd vss vss gf180mcu_fd_sc_mcu7t5v0__fill_2
XANTENNA__1150__CLK clknet_3_0__leaf_clk vdd vdd vss vss gf180mcu_fd_sc_mcu7t5v0__antenna
X_0983_ _0117_ _0441_ _0446_ _0447_ _0448_ vdd vdd vss vss gf180mcu_fd_sc_mcu7t5v0__aoi211_1
XFILLER_0_14_238 vdd vdd vss vss gf180mcu_fd_sc_mcu7t5v0__fillcap_4
XFILLER_0_22_282 vdd vdd vss vss gf180mcu_fd_sc_mcu7t5v0__fill_1
XFILLER_0_45_330 vdd vdd vss vss gf180mcu_fd_sc_mcu7t5v0__fillcap_8
XANTENNA__0714__B _0208_ vdd vdd vss vss gf180mcu_fd_sc_mcu7t5v0__antenna
XFILLER_0_9_298 vdd vdd vss vss gf180mcu_fd_sc_mcu7t5v0__fill_1
XFILLER_0_13_282 vdd vdd vss vss gf180mcu_fd_sc_mcu7t5v0__fill_2
XTAP_TAPCELL_ROW_28_233 vdd vss gf180mcu_fd_sc_mcu7t5v0__filltie
XANTENNA__0626__A1 _0086_ vdd vdd vss vss gf180mcu_fd_sc_mcu7t5v0__antenna
XTAP_TAPCELL_ROW_11_155 vdd vss gf180mcu_fd_sc_mcu7t5v0__filltie
XTAP_TAPCELL_ROW_34_258 vdd vss gf180mcu_fd_sc_mcu7t5v0__filltie
XFILLER_0_24_85 vdd vdd vss vss gf180mcu_fd_sc_mcu7t5v0__fillcap_16
XFILLER_0_42_333 vdd vdd vss vss gf180mcu_fd_sc_mcu7t5v0__fillcap_8
XFILLER_0_40_84 vdd vdd vss vss gf180mcu_fd_sc_mcu7t5v0__fill_2
X_0897_ _0202_ _0370_ vdd vdd vss vss gf180mcu_fd_sc_mcu7t5v0__buf_1
XFILLER_0_6_268 vdd vdd vss vss gf180mcu_fd_sc_mcu7t5v0__fill_1
X_0966_ _0184_ solo_squash.paddle\[6\] _0432_ vdd vdd vss vss gf180mcu_fd_sc_mcu7t5v0__xor2_1
XFILLER_0_4_73 vdd vdd vss vss gf180mcu_fd_sc_mcu7t5v0__fill_2
XTAP_TAPCELL_ROW_2_112 vdd vss gf180mcu_fd_sc_mcu7t5v0__filltie
XFILLER_0_45_160 vdd vdd vss vss gf180mcu_fd_sc_mcu7t5v0__fill_2
XFILLER_0_18_341 vdd vdd vss vss gf180mcu_fd_sc_mcu7t5v0__fill_2
XTAP_TAPCELL_ROW_48_328 vdd vss gf180mcu_fd_sc_mcu7t5v0__filltie
X_0751_ solo_squash.paddle\[3\] _0240_ vdd vdd vss vss gf180mcu_fd_sc_mcu7t5v0__buf_1
XFILLER_0_3_238 vdd vdd vss vss gf180mcu_fd_sc_mcu7t5v0__fill_1
X_0820_ _0298_ net30 _0304_ vdd vdd vss vss gf180mcu_fd_sc_mcu7t5v0__nor2_1
XANTENNA__1024__A1 _0473_ vdd vdd vss vss gf180mcu_fd_sc_mcu7t5v0__antenna
X_0682_ _0179_ solo_squash.ballY\[5\] _0180_ vdd vdd vss vss gf180mcu_fd_sc_mcu7t5v0__or2_1
XFILLER_0_10_87 vdd vdd vss vss gf180mcu_fd_sc_mcu7t5v0__fill_2
XFILLER_0_19_30 vdd vdd vss vss gf180mcu_fd_sc_mcu7t5v0__fillcap_32
X_1165_ _0052_ clknet_3_4__leaf_clk solo_squash.v\[5\] vdd vdd vss vss gf180mcu_fd_sc_mcu7t5v0__dffq_1
X_1096_ _0473_ _0538_ _0542_ vdd vdd vss vss gf180mcu_fd_sc_mcu7t5v0__nand2_1
XFILLER_0_15_311 vdd vdd vss vss gf180mcu_fd_sc_mcu7t5v0__fill_1
XTAP_TAPCELL_ROW_22_206 vdd vss gf180mcu_fd_sc_mcu7t5v0__filltie
XFILLER_0_42_174 vdd vdd vss vss gf180mcu_fd_sc_mcu7t5v0__fill_1
X_0949_ _0413_ _0414_ _0415_ _0416_ vdd vdd vss vss gf180mcu_fd_sc_mcu7t5v0__oai21_1
XFILLER_0_27_182 vdd vdd vss vss gf180mcu_fd_sc_mcu7t5v0__fill_2
XTAP_TAPCELL_ROW_45_309 vdd vss gf180mcu_fd_sc_mcu7t5v0__filltie
XANTENNA__0829__A1 _0241_ vdd vdd vss vss gf180mcu_fd_sc_mcu7t5v0__antenna
XFILLER_0_33_152 vdd vdd vss vss gf180mcu_fd_sc_mcu7t5v0__fillcap_4
X_0665_ solo_squash.ballY\[3\] solo_squash.ballY\[4\] _0163_ vdd vdd vss vss gf180mcu_fd_sc_mcu7t5v0__and2_1
X_0803_ solo_squash.paddle\[6\] _0262_ _0268_ _0288_ vdd vdd vss vss gf180mcu_fd_sc_mcu7t5v0__nand3_1
XFILLER_0_12_303 vdd vdd vss vss gf180mcu_fd_sc_mcu7t5v0__fillcap_8
X_0734_ _0198_ net30 _0214_ _0225_ vdd vdd vss vss gf180mcu_fd_sc_mcu7t5v0__oai21_1
XFILLER_0_21_86 vdd vdd vss vss gf180mcu_fd_sc_mcu7t5v0__fillcap_8
XFILLER_0_24_141 vdd vdd vss vss gf180mcu_fd_sc_mcu7t5v0__fillcap_4
X_0596_ _0098_ _0099_ vdd vdd vss vss gf180mcu_fd_sc_mcu7t5v0__clkbuf_1
XFILLER_0_1_74 vdd vdd vss vss gf180mcu_fd_sc_mcu7t5v0__fill_1
X_1079_ _0421_ _0196_ _0529_ vdd vdd vss vss gf180mcu_fd_sc_mcu7t5v0__nor2_1
X_1148_ _0035_ clknet_3_3__leaf_clk solo_squash.inBallY vdd vdd vss vss gf180mcu_fd_sc_mcu7t5v0__dffq_1
XFILLER_0_7_341 vdd vdd vss vss gf180mcu_fd_sc_mcu7t5v0__fill_2
XFILLER_0_30_177 vdd vdd vss vss gf180mcu_fd_sc_mcu7t5v0__fillcap_32
Xhold21 io_in[0] net41 vdd vdd vss vss gf180mcu_fd_sc_mcu7t5v0__dlyc_1
Xhold10 _0219_ net30 vdd vdd vss vss gf180mcu_fd_sc_mcu7t5v0__buf_1
X_1002_ _0177_ _0466_ _0467_ vdd vdd vss vss gf180mcu_fd_sc_mcu7t5v0__nand2_1
XFILLER_0_44_247 vdd vdd vss vss gf180mcu_fd_sc_mcu7t5v0__fillcap_64
XFILLER_0_8_138 vdd vdd vss vss gf180mcu_fd_sc_mcu7t5v0__fill_1
X_0717_ solo_squash.offset\[3\] _0206_ _0211_ vdd vdd vss vss gf180mcu_fd_sc_mcu7t5v0__nand2_1
XFILLER_0_12_177 vdd vdd vss vss gf180mcu_fd_sc_mcu7t5v0__fillcap_8
X_0648_ solo_squash.h\[4\] _0146_ _0147_ vdd vdd vss vss gf180mcu_fd_sc_mcu7t5v0__xor2_1
XFILLER_0_32_2 vdd vdd vss vss gf180mcu_fd_sc_mcu7t5v0__fillcap_32
X_0579_ _0081_ _0082_ vdd vdd vss vss gf180mcu_fd_sc_mcu7t5v0__clkinv_1
XFILLER_0_35_269 vdd vdd vss vss gf180mcu_fd_sc_mcu7t5v0__fill_2
Xoutput9 net9 io_out[11] vdd vdd vss vss gf180mcu_fd_sc_mcu7t5v0__buf_8
Xoutput11 net11 io_out[5] vdd vdd vss vss gf180mcu_fd_sc_mcu7t5v0__buf_8
XFILLER_0_5_119 vdd vdd vss vss gf180mcu_fd_sc_mcu7t5v0__fillcap_8
XFILLER_0_26_247 vdd vdd vss vss gf180mcu_fd_sc_mcu7t5v0__fillcap_16
XFILLER_0_41_228 vdd vdd vss vss gf180mcu_fd_sc_mcu7t5v0__fillcap_8
XFILLER_0_34_280 vdd vdd vss vss gf180mcu_fd_sc_mcu7t5v0__fillcap_16
XTAP_TAPCELL_ROW_17_183 vdd vss gf180mcu_fd_sc_mcu7t5v0__filltie
XFILLER_0_32_206 vdd vdd vss vss gf180mcu_fd_sc_mcu7t5v0__fillcap_16
XFILLER_0_4_185 vdd vdd vss vss gf180mcu_fd_sc_mcu7t5v0__fillcap_4
XFILLER_0_17_258 vdd vdd vss vss gf180mcu_fd_sc_mcu7t5v0__fill_2
XFILLER_0_40_283 vdd vdd vss vss gf180mcu_fd_sc_mcu7t5v0__fillcap_8
XANTENNA_hold12_I io_in[2] vdd vdd vss vss gf180mcu_fd_sc_mcu7t5v0__antenna
XTAP_TAPCELL_ROW_8_140 vdd vss gf180mcu_fd_sc_mcu7t5v0__filltie
XFILLER_0_13_32 vdd vdd vss vss gf180mcu_fd_sc_mcu7t5v0__fill_2
X_0982_ _0102_ _0365_ _0447_ vdd vdd vss vss gf180mcu_fd_sc_mcu7t5v0__xor2_1
XFILLER_0_13_76 vdd vdd vss vss gf180mcu_fd_sc_mcu7t5v0__fillcap_4
XFILLER_0_45_342 vdd vdd vss vss gf180mcu_fd_sc_mcu7t5v0__fill_1
XFILLER_0_37_309 vdd vdd vss vss gf180mcu_fd_sc_mcu7t5v0__fill_2
XANTENNA__0730__B _0208_ vdd vdd vss vss gf180mcu_fd_sc_mcu7t5v0__antenna
XFILLER_0_13_272 vdd vdd vss vss gf180mcu_fd_sc_mcu7t5v0__fillcap_8
XFILLER_0_28_309 vdd vdd vss vss gf180mcu_fd_sc_mcu7t5v0__fillcap_4
XTAP_TAPCELL_ROW_11_156 vdd vss gf180mcu_fd_sc_mcu7t5v0__filltie
XTAP_TAPCELL_ROW_34_259 vdd vss gf180mcu_fd_sc_mcu7t5v0__filltie
XFILLER_0_27_342 vdd vdd vss vss gf180mcu_fd_sc_mcu7t5v0__fill_1
X_0896_ _0366_ _0368_ _0369_ vdd vdd vss vss gf180mcu_fd_sc_mcu7t5v0__xor2_1
XTAP_TAPCELL_ROW_42_292 vdd vss gf180mcu_fd_sc_mcu7t5v0__filltie
XFILLER_0_6_247 vdd vdd vss vss gf180mcu_fd_sc_mcu7t5v0__fill_2
X_0965_ _0421_ _0423_ _0425_ _0430_ _0431_ vdd vdd vss vss gf180mcu_fd_sc_mcu7t5v0__nor4_4
XTAP_TAPCELL_ROW_2_113 vdd vss gf180mcu_fd_sc_mcu7t5v0__filltie
XFILLER_0_10_297 vdd vdd vss vss gf180mcu_fd_sc_mcu7t5v0__fillcap_4
XFILLER_0_45_194 vdd vdd vss vss gf180mcu_fd_sc_mcu7t5v0__fillcap_16
XFILLER_0_37_128 vdd vdd vss vss gf180mcu_fd_sc_mcu7t5v0__fill_2
XANTENNA__1140__CLK clknet_3_7__leaf_clk vdd vdd vss vss gf180mcu_fd_sc_mcu7t5v0__antenna
X_0681_ solo_squash.ballY\[4\] _0179_ vdd vdd vss vss gf180mcu_fd_sc_mcu7t5v0__buf_1
X_0750_ _0200_ _0237_ _0239_ _0007_ vdd vdd vss vss gf180mcu_fd_sc_mcu7t5v0__nor3_1
XFILLER_0_3_206 vdd vdd vss vss gf180mcu_fd_sc_mcu7t5v0__fill_2
X_1095_ _0396_ _0541_ _0050_ vdd vdd vss vss gf180mcu_fd_sc_mcu7t5v0__nor2_1
X_1164_ _0051_ clknet_3_1__leaf_clk solo_squash.v\[4\] vdd vdd vss vss gf180mcu_fd_sc_mcu7t5v0__dffq_1
XFILLER_0_42_131 vdd vdd vss vss gf180mcu_fd_sc_mcu7t5v0__fillcap_8
X_0948_ _0374_ _0168_ _0415_ vdd vdd vss vss gf180mcu_fd_sc_mcu7t5v0__xor2_1
XTAP_TAPCELL_ROW_30_240 vdd vss gf180mcu_fd_sc_mcu7t5v0__filltie
XANTENNA__1163__CLK clknet_3_1__leaf_clk vdd vdd vss vss gf180mcu_fd_sc_mcu7t5v0__antenna
XFILLER_0_19_106 vdd vdd vss vss gf180mcu_fd_sc_mcu7t5v0__fill_1
XFILLER_0_19_139 vdd vdd vss vss gf180mcu_fd_sc_mcu7t5v0__fill_1
XFILLER_0_42_164 vdd vdd vss vss gf180mcu_fd_sc_mcu7t5v0__fillcap_8
X_0879_ _0354_ _0350_ _0355_ vdd vdd vss vss gf180mcu_fd_sc_mcu7t5v0__nand2_1
XFILLER_0_30_304 vdd vdd vss vss gf180mcu_fd_sc_mcu7t5v0__fill_2
XFILLER_0_33_142 vdd vdd vss vss gf180mcu_fd_sc_mcu7t5v0__fill_1
XFILLER_0_33_120 vdd vdd vss vss gf180mcu_fd_sc_mcu7t5v0__fillcap_16
XANTENNA__0765__A1 _0187_ vdd vdd vss vss gf180mcu_fd_sc_mcu7t5v0__antenna
XFILLER_0_21_304 vdd vdd vss vss gf180mcu_fd_sc_mcu7t5v0__fill_1
XPHY_EDGE_ROW_28_Left_77 vdd vss gf180mcu_fd_sc_mcu7t5v0__endcap
X_0802_ _0275_ _0265_ _0287_ vdd vdd vss vss gf180mcu_fd_sc_mcu7t5v0__nor2_1
XFILLER_0_21_10 vdd vdd vss vss gf180mcu_fd_sc_mcu7t5v0__fill_2
XFILLER_0_24_120 vdd vdd vss vss gf180mcu_fd_sc_mcu7t5v0__fill_2
X_0664_ solo_squash.ballY\[5\] _0162_ vdd vdd vss vss gf180mcu_fd_sc_mcu7t5v0__buf_1
X_0733_ _0223_ _0224_ vdd vdd vss vss gf180mcu_fd_sc_mcu7t5v0__buf_1
XFILLER_0_46_73 vdd vdd vss vss gf180mcu_fd_sc_mcu7t5v0__fill_2
X_0595_ solo_squash.h\[1\] _0098_ vdd vdd vss vss gf180mcu_fd_sc_mcu7t5v0__buf_1
XFILLER_0_47_212 vdd vdd vss vss gf180mcu_fd_sc_mcu7t5v0__fillcap_64
X_1147_ _0034_ clknet_3_4__leaf_clk solo_squash.ballDirX vdd vdd vss vss gf180mcu_fd_sc_mcu7t5v0__dffq_1
XFILLER_0_1_20 vdd vdd vss vss gf180mcu_fd_sc_mcu7t5v0__fill_1
X_1078_ _0155_ _0528_ vdd vdd vss vss gf180mcu_fd_sc_mcu7t5v0__clkbuf_1
XFILLER_0_15_142 vdd vdd vss vss gf180mcu_fd_sc_mcu7t5v0__fill_1
XFILLER_0_15_175 vdd vdd vss vss gf180mcu_fd_sc_mcu7t5v0__fillcap_16
Xhold11 net33 net31 vdd vdd vss vss gf180mcu_fd_sc_mcu7t5v0__dlyb_1
XFILLER_0_38_201 vdd vdd vss vss gf180mcu_fd_sc_mcu7t5v0__fillcap_8
XANTENNA__0910__A1 _0365_ vdd vdd vss vss gf180mcu_fd_sc_mcu7t5v0__antenna
X_1001_ _0173_ _0394_ _0466_ vdd vdd vss vss gf180mcu_fd_sc_mcu7t5v0__nand2_1
XFILLER_0_16_32 vdd vdd vss vss gf180mcu_fd_sc_mcu7t5v0__fill_2
XFILLER_0_16_21 vdd vdd vss vss gf180mcu_fd_sc_mcu7t5v0__fill_1
XFILLER_0_16_98 vdd vdd vss vss gf180mcu_fd_sc_mcu7t5v0__fill_2
XANTENNA_clkbuf_3_5__f_clk_I clknet_0_clk vdd vdd vss vss gf180mcu_fd_sc_mcu7t5v0__antenna
XANTENNA__0977__A1 _0170_ vdd vdd vss vss gf180mcu_fd_sc_mcu7t5v0__antenna
XFILLER_0_32_53 vdd vdd vss vss gf180mcu_fd_sc_mcu7t5v0__fillcap_4
XFILLER_0_29_278 vdd vdd vss vss gf180mcu_fd_sc_mcu7t5v0__fill_2
XFILLER_0_4_323 vdd vdd vss vss gf180mcu_fd_sc_mcu7t5v0__fill_2
X_0716_ solo_squash.offset\[3\] _0206_ _0210_ vdd vdd vss vss gf180mcu_fd_sc_mcu7t5v0__nor2_1
X_0647_ _0136_ _0144_ _0145_ _0146_ vdd vdd vss vss gf180mcu_fd_sc_mcu7t5v0__aoi21_1