* NGSPICE file created from top_design_mux.ext - technology: gf180mcuD

* Black-box entry subcircuit for gf180mcu_fd_sc_mcu7t5v0__fillcap_4 abstract view
.subckt gf180mcu_fd_sc_mcu7t5v0__fillcap_4 VDD VNW VPW VSS
.ends

* Black-box entry subcircuit for gf180mcu_fd_sc_mcu7t5v0__fillcap_64 abstract view
.subckt gf180mcu_fd_sc_mcu7t5v0__fillcap_64 VDD VNW VPW VSS
.ends

* Black-box entry subcircuit for gf180mcu_fd_sc_mcu7t5v0__fillcap_16 abstract view
.subckt gf180mcu_fd_sc_mcu7t5v0__fillcap_16 VDD VNW VPW VSS
.ends

* Black-box entry subcircuit for gf180mcu_fd_sc_mcu7t5v0__antenna abstract view
.subckt gf180mcu_fd_sc_mcu7t5v0__antenna I VDD VNW VPW VSS
.ends

* Black-box entry subcircuit for gf180mcu_fd_sc_mcu7t5v0__fill_2 abstract view
.subckt gf180mcu_fd_sc_mcu7t5v0__fill_2 VDD VNW VPW VSS
.ends

* Black-box entry subcircuit for gf180mcu_fd_sc_mcu7t5v0__fillcap_8 abstract view
.subckt gf180mcu_fd_sc_mcu7t5v0__fillcap_8 VDD VNW VPW VSS
.ends

* Black-box entry subcircuit for gf180mcu_fd_sc_mcu7t5v0__fill_1 abstract view
.subckt gf180mcu_fd_sc_mcu7t5v0__fill_1 VDD VNW VPW VSS
.ends

* Black-box entry subcircuit for gf180mcu_fd_sc_mcu7t5v0__filltie abstract view
.subckt gf180mcu_fd_sc_mcu7t5v0__filltie VDD VSS
.ends

* Black-box entry subcircuit for gf180mcu_fd_sc_mcu7t5v0__inv_1 abstract view
.subckt gf180mcu_fd_sc_mcu7t5v0__inv_1 I ZN VDD VNW VPW VSS
.ends

* Black-box entry subcircuit for gf180mcu_fd_sc_mcu7t5v0__fillcap_32 abstract view
.subckt gf180mcu_fd_sc_mcu7t5v0__fillcap_32 VDD VNW VPW VSS
.ends

* Black-box entry subcircuit for gf180mcu_fd_sc_mcu7t5v0__nand3_4 abstract view
.subckt gf180mcu_fd_sc_mcu7t5v0__nand3_4 A1 A2 A3 ZN VDD VNW VPW VSS
.ends

* Black-box entry subcircuit for gf180mcu_fd_sc_mcu7t5v0__aoi222_4 abstract view
.subckt gf180mcu_fd_sc_mcu7t5v0__aoi222_4 A1 A2 B1 B2 C1 C2 ZN VDD VNW VPW VSS
.ends

* Black-box entry subcircuit for gf180mcu_fd_sc_mcu7t5v0__buf_4 abstract view
.subckt gf180mcu_fd_sc_mcu7t5v0__buf_4 I Z VDD VNW VPW VSS
.ends

* Black-box entry subcircuit for gf180mcu_fd_sc_mcu7t5v0__buf_8 abstract view
.subckt gf180mcu_fd_sc_mcu7t5v0__buf_8 I Z VDD VNW VPW VSS
.ends

* Black-box entry subcircuit for gf180mcu_fd_sc_mcu7t5v0__buf_2 abstract view
.subckt gf180mcu_fd_sc_mcu7t5v0__buf_2 I Z VDD VNW VPW VSS
.ends

* Black-box entry subcircuit for gf180mcu_fd_sc_mcu7t5v0__clkbuf_3 abstract view
.subckt gf180mcu_fd_sc_mcu7t5v0__clkbuf_3 I Z VDD VNW VPW VSS
.ends

* Black-box entry subcircuit for gf180mcu_fd_sc_mcu7t5v0__nand4_4 abstract view
.subckt gf180mcu_fd_sc_mcu7t5v0__nand4_4 A1 A2 A3 A4 ZN VDD VNW VPW VSS
.ends

* Black-box entry subcircuit for gf180mcu_fd_sc_mcu7t5v0__clkbuf_2 abstract view
.subckt gf180mcu_fd_sc_mcu7t5v0__clkbuf_2 I Z VDD VNW VPW VSS
.ends

* Black-box entry subcircuit for gf180mcu_fd_sc_mcu7t5v0__clkbuf_1 abstract view
.subckt gf180mcu_fd_sc_mcu7t5v0__clkbuf_1 I Z VDD VNW VPW VSS
.ends

* Black-box entry subcircuit for gf180mcu_fd_sc_mcu7t5v0__buf_1 abstract view
.subckt gf180mcu_fd_sc_mcu7t5v0__buf_1 I Z VDD VNW VPW VSS
.ends

* Black-box entry subcircuit for gf180mcu_fd_sc_mcu7t5v0__dlyc_1 abstract view
.subckt gf180mcu_fd_sc_mcu7t5v0__dlyc_1 I Z VDD VNW VPW VSS
.ends

* Black-box entry subcircuit for gf180mcu_fd_sc_mcu7t5v0__clkbuf_8 abstract view
.subckt gf180mcu_fd_sc_mcu7t5v0__clkbuf_8 I Z VDD VNW VPW VSS
.ends

* Black-box entry subcircuit for gf180mcu_fd_sc_mcu7t5v0__nand2_4 abstract view
.subckt gf180mcu_fd_sc_mcu7t5v0__nand2_4 A1 A2 ZN VDD VNW VPW VSS
.ends

* Black-box entry subcircuit for gf180mcu_fd_sc_mcu7t5v0__oai22_2 abstract view
.subckt gf180mcu_fd_sc_mcu7t5v0__oai22_2 A1 A2 B1 B2 ZN VDD VNW VPW VSS
.ends

* Black-box entry subcircuit for gf180mcu_fd_sc_mcu7t5v0__aoi221_4 abstract view
.subckt gf180mcu_fd_sc_mcu7t5v0__aoi221_4 A1 A2 B1 B2 C ZN VDD VNW VPW VSS
.ends

* Black-box entry subcircuit for gf180mcu_fd_sc_mcu7t5v0__clkinv_1 abstract view
.subckt gf180mcu_fd_sc_mcu7t5v0__clkinv_1 I ZN VDD VNW VPW VSS
.ends

* Black-box entry subcircuit for gf180mcu_fd_sc_mcu7t5v0__endcap abstract view
.subckt gf180mcu_fd_sc_mcu7t5v0__endcap VDD VSS
.ends

* Black-box entry subcircuit for gf180mcu_fd_sc_mcu7t5v0__dlyb_1 abstract view
.subckt gf180mcu_fd_sc_mcu7t5v0__dlyb_1 I Z VDD VNW VPW VSS
.ends

* Black-box entry subcircuit for gf180mcu_fd_sc_mcu7t5v0__clkbuf_4 abstract view
.subckt gf180mcu_fd_sc_mcu7t5v0__clkbuf_4 I Z VDD VNW VPW VSS
.ends

* Black-box entry subcircuit for gf180mcu_fd_sc_mcu7t5v0__buf_3 abstract view
.subckt gf180mcu_fd_sc_mcu7t5v0__buf_3 I Z VDD VNW VPW VSS
.ends

* Black-box entry subcircuit for gf180mcu_fd_sc_mcu7t5v0__aoi22_4 abstract view
.subckt gf180mcu_fd_sc_mcu7t5v0__aoi22_4 A1 A2 B1 B2 ZN VDD VNW VPW VSS
.ends

* Black-box entry subcircuit for gf180mcu_fd_sc_mcu7t5v0__nor3_2 abstract view
.subckt gf180mcu_fd_sc_mcu7t5v0__nor3_2 A1 A2 A3 ZN VDD VNW VPW VSS
.ends

* Black-box entry subcircuit for gf180mcu_fd_sc_mcu7t5v0__nor3_4 abstract view
.subckt gf180mcu_fd_sc_mcu7t5v0__nor3_4 A1 A2 A3 ZN VDD VNW VPW VSS
.ends

* Black-box entry subcircuit for gf180mcu_fd_sc_mcu7t5v0__dffq_2 abstract view
.subckt gf180mcu_fd_sc_mcu7t5v0__dffq_2 D CLK Q VDD VNW VPW VSS
.ends

* Black-box entry subcircuit for gf180mcu_fd_sc_mcu7t5v0__nor2_1 abstract view
.subckt gf180mcu_fd_sc_mcu7t5v0__nor2_1 A1 A2 ZN VDD VNW VPW VSS
.ends

* Black-box entry subcircuit for gf180mcu_fd_sc_mcu7t5v0__or2_1 abstract view
.subckt gf180mcu_fd_sc_mcu7t5v0__or2_1 A1 A2 Z VDD VNW VPW VSS
.ends

* Black-box entry subcircuit for gf180mcu_fd_sc_mcu7t5v0__nor4_4 abstract view
.subckt gf180mcu_fd_sc_mcu7t5v0__nor4_4 A1 A2 A3 A4 ZN VDD VNW VPW VSS
.ends

* Black-box entry subcircuit for gf180mcu_fd_sc_mcu7t5v0__oai21_4 abstract view
.subckt gf180mcu_fd_sc_mcu7t5v0__oai21_4 A1 A2 B ZN VDD VNW VPW VSS
.ends

* Black-box entry subcircuit for gf180mcu_fd_sc_mcu7t5v0__nand2_2 abstract view
.subckt gf180mcu_fd_sc_mcu7t5v0__nand2_2 A1 A2 ZN VDD VNW VPW VSS
.ends

* Black-box entry subcircuit for gf180mcu_fd_sc_mcu7t5v0__dffq_1 abstract view
.subckt gf180mcu_fd_sc_mcu7t5v0__dffq_1 D CLK Q VDD VNW VPW VSS
.ends

* Black-box entry subcircuit for gf180mcu_fd_sc_mcu7t5v0__inv_2 abstract view
.subckt gf180mcu_fd_sc_mcu7t5v0__inv_2 I ZN VDD VNW VPW VSS
.ends

* Black-box entry subcircuit for gf180mcu_fd_sc_mcu7t5v0__aoi22_2 abstract view
.subckt gf180mcu_fd_sc_mcu7t5v0__aoi22_2 A1 A2 B1 B2 ZN VDD VNW VPW VSS
.ends

* Black-box entry subcircuit for gf180mcu_fd_sc_mcu7t5v0__inv_3 abstract view
.subckt gf180mcu_fd_sc_mcu7t5v0__inv_3 I ZN VDD VNW VPW VSS
.ends

* Black-box entry subcircuit for gf180mcu_fd_sc_mcu7t5v0__and2_1 abstract view
.subckt gf180mcu_fd_sc_mcu7t5v0__and2_1 A1 A2 Z VDD VNW VPW VSS
.ends

* Black-box entry subcircuit for gf180mcu_fd_sc_mcu7t5v0__aoi22_1 abstract view
.subckt gf180mcu_fd_sc_mcu7t5v0__aoi22_1 A1 A2 B1 B2 ZN VDD VNW VPW VSS
.ends

* Black-box entry subcircuit for gf180mcu_fd_sc_mcu7t5v0__nor2_2 abstract view
.subckt gf180mcu_fd_sc_mcu7t5v0__nor2_2 A1 A2 ZN VDD VNW VPW VSS
.ends

* Black-box entry subcircuit for gf180mcu_fd_sc_mcu7t5v0__nand3_2 abstract view
.subckt gf180mcu_fd_sc_mcu7t5v0__nand3_2 A1 A2 A3 ZN VDD VNW VPW VSS
.ends

* Black-box entry subcircuit for gf180mcu_fd_sc_mcu7t5v0__oai21_2 abstract view
.subckt gf180mcu_fd_sc_mcu7t5v0__oai21_2 A1 A2 B ZN VDD VNW VPW VSS
.ends

* Black-box entry subcircuit for gf180mcu_fd_sc_mcu7t5v0__clkinv_2 abstract view
.subckt gf180mcu_fd_sc_mcu7t5v0__clkinv_2 I ZN VDD VNW VPW VSS
.ends

* Black-box entry subcircuit for gf180mcu_fd_sc_mcu7t5v0__or4_1 abstract view
.subckt gf180mcu_fd_sc_mcu7t5v0__or4_1 A1 A2 A3 A4 Z VDD VNW VPW VSS
.ends

* Black-box entry subcircuit for gf180mcu_fd_sc_mcu7t5v0__tieh abstract view
.subckt gf180mcu_fd_sc_mcu7t5v0__tieh Z VDD VNW VPW VSS
.ends

* Black-box entry subcircuit for gf180mcu_fd_sc_mcu7t5v0__nor2_4 abstract view
.subckt gf180mcu_fd_sc_mcu7t5v0__nor2_4 A1 A2 ZN VDD VNW VPW VSS
.ends

* Black-box entry subcircuit for gf180mcu_fd_sc_mcu7t5v0__and3_1 abstract view
.subckt gf180mcu_fd_sc_mcu7t5v0__and3_1 A1 A2 A3 Z VDD VNW VPW VSS
.ends

* Black-box entry subcircuit for gf180mcu_fd_sc_mcu7t5v0__clkbuf_16 abstract view
.subckt gf180mcu_fd_sc_mcu7t5v0__clkbuf_16 I Z VDD VNW VPW VSS
.ends

* Black-box entry subcircuit for gf180mcu_fd_sc_mcu7t5v0__oai31_2 abstract view
.subckt gf180mcu_fd_sc_mcu7t5v0__oai31_2 A1 A2 A3 B ZN VDD VNW VPW VSS
.ends

* Black-box entry subcircuit for gf180mcu_fd_sc_mcu7t5v0__or2_2 abstract view
.subckt gf180mcu_fd_sc_mcu7t5v0__or2_2 A1 A2 Z VDD VNW VPW VSS
.ends

* Black-box entry subcircuit for gf180mcu_fd_sc_mcu7t5v0__nand3_1 abstract view
.subckt gf180mcu_fd_sc_mcu7t5v0__nand3_1 A1 A2 A3 ZN VDD VNW VPW VSS
.ends

* Black-box entry subcircuit for gf180mcu_fd_sc_mcu7t5v0__nand2_1 abstract view
.subckt gf180mcu_fd_sc_mcu7t5v0__nand2_1 A1 A2 ZN VDD VNW VPW VSS
.ends

* Black-box entry subcircuit for gf180mcu_fd_sc_mcu7t5v0__or2_4 abstract view
.subckt gf180mcu_fd_sc_mcu7t5v0__or2_4 A1 A2 Z VDD VNW VPW VSS
.ends

.subckt top_design_mux diego_clk diego_ena diego_io_in[0] diego_io_in[10] diego_io_in[11]
+ diego_io_in[12] diego_io_in[13] diego_io_in[14] diego_io_in[15] diego_io_in[16]
+ diego_io_in[17] diego_io_in[18] diego_io_in[19] diego_io_in[1] diego_io_in[20] diego_io_in[21]
+ diego_io_in[22] diego_io_in[23] diego_io_in[24] diego_io_in[25] diego_io_in[26]
+ diego_io_in[27] diego_io_in[28] diego_io_in[29] diego_io_in[2] diego_io_in[30] diego_io_in[31]
+ diego_io_in[32] diego_io_in[33] diego_io_in[34] diego_io_in[35] diego_io_in[36]
+ diego_io_in[37] diego_io_in[3] diego_io_in[4] diego_io_in[5] diego_io_in[6] diego_io_in[7]
+ diego_io_in[8] diego_io_in[9] diego_io_oeb[0] diego_io_oeb[10] diego_io_oeb[11]
+ diego_io_oeb[12] diego_io_oeb[13] diego_io_oeb[14] diego_io_oeb[15] diego_io_oeb[16]
+ diego_io_oeb[17] diego_io_oeb[18] diego_io_oeb[19] diego_io_oeb[1] diego_io_oeb[20]
+ diego_io_oeb[21] diego_io_oeb[22] diego_io_oeb[23] diego_io_oeb[24] diego_io_oeb[25]
+ diego_io_oeb[26] diego_io_oeb[27] diego_io_oeb[28] diego_io_oeb[29] diego_io_oeb[2]
+ diego_io_oeb[30] diego_io_oeb[31] diego_io_oeb[3] diego_io_oeb[4] diego_io_oeb[5]
+ diego_io_oeb[6] diego_io_oeb[7] diego_io_oeb[8] diego_io_oeb[9] diego_io_out[0]
+ diego_io_out[10] diego_io_out[11] diego_io_out[12] diego_io_out[13] diego_io_out[14]
+ diego_io_out[15] diego_io_out[16] diego_io_out[17] diego_io_out[18] diego_io_out[19]
+ diego_io_out[1] diego_io_out[20] diego_io_out[21] diego_io_out[22] diego_io_out[23]
+ diego_io_out[24] diego_io_out[25] diego_io_out[26] diego_io_out[27] diego_io_out[28]
+ diego_io_out[29] diego_io_out[2] diego_io_out[30] diego_io_out[31] diego_io_out[3]
+ diego_io_out[4] diego_io_out[5] diego_io_out[6] diego_io_out[7] diego_io_out[8]
+ diego_io_out[9] diego_rst i_design_reset[0] i_design_reset[1] i_design_reset[2]
+ i_design_reset[3] i_design_reset[4] i_design_reset[5] i_design_reset[6] i_design_reset[7]
+ i_mux_auto_reset_enb i_mux_io5_reset_enb i_mux_sel[0] i_mux_sel[1] i_mux_sel[2]
+ i_mux_sel[3] i_mux_sys_reset_enb io_in[0] io_in[10] io_in[11] io_in[12] io_in[13]
+ io_in[14] io_in[15] io_in[16] io_in[17] io_in[18] io_in[19] io_in[1] io_in[20] io_in[21]
+ io_in[22] io_in[23] io_in[24] io_in[25] io_in[26] io_in[27] io_in[28] io_in[29]
+ io_in[2] io_in[30] io_in[31] io_in[32] io_in[33] io_in[34] io_in[35] io_in[36] io_in[37]
+ io_in[3] io_in[4] io_in[5] io_in[6] io_in[7] io_in[8] io_in[9] io_oeb[0] io_oeb[10]
+ io_oeb[11] io_oeb[12] io_oeb[13] io_oeb[14] io_oeb[15] io_oeb[16] io_oeb[17] io_oeb[18]
+ io_oeb[19] io_oeb[1] io_oeb[20] io_oeb[21] io_oeb[22] io_oeb[23] io_oeb[24] io_oeb[25]
+ io_oeb[26] io_oeb[27] io_oeb[28] io_oeb[29] io_oeb[2] io_oeb[30] io_oeb[31] io_oeb[32]
+ io_oeb[33] io_oeb[34] io_oeb[35] io_oeb[36] io_oeb[37] io_oeb[3] io_oeb[4] io_oeb[5]
+ io_oeb[6] io_oeb[7] io_oeb[8] io_oeb[9] io_out[10] io_out[11] io_out[12] io_out[13]
+ io_out[14] io_out[15] io_out[16] io_out[17] io_out[18] io_out[19] io_out[20] io_out[21]
+ io_out[22] io_out[23] io_out[24] io_out[25] io_out[26] io_out[27] io_out[28] io_out[29]
+ io_out[2] io_out[30] io_out[31] io_out[32] io_out[33] io_out[34] io_out[35] io_out[36]
+ io_out[37] io_out[3] io_out[4] io_out[5] io_out[6] io_out[7] io_out[8] io_out[9]
+ la_in[0] la_in[10] la_in[11] la_in[12] la_in[13] la_in[14] la_in[15] la_in[1] la_in[2]
+ la_in[3] la_in[4] la_in[5] la_in[6] la_in[7] la_in[8] la_in[9] mux_conf_clk pawel_clk
+ pawel_ena pawel_io_in[0] pawel_io_in[10] pawel_io_in[11] pawel_io_in[12] pawel_io_in[13]
+ pawel_io_in[14] pawel_io_in[15] pawel_io_in[16] pawel_io_in[17] pawel_io_in[18]
+ pawel_io_in[19] pawel_io_in[1] pawel_io_in[20] pawel_io_in[21] pawel_io_in[22] pawel_io_in[23]
+ pawel_io_in[24] pawel_io_in[25] pawel_io_in[26] pawel_io_in[27] pawel_io_in[28]
+ pawel_io_in[29] pawel_io_in[2] pawel_io_in[30] pawel_io_in[31] pawel_io_in[32] pawel_io_in[33]
+ pawel_io_in[34] pawel_io_in[35] pawel_io_in[36] pawel_io_in[37] pawel_io_in[3] pawel_io_in[4]
+ pawel_io_in[5] pawel_io_in[6] pawel_io_in[7] pawel_io_in[8] pawel_io_in[9] pawel_io_oeb[0]
+ pawel_io_oeb[10] pawel_io_oeb[11] pawel_io_oeb[12] pawel_io_oeb[1] pawel_io_oeb[2]
+ pawel_io_oeb[3] pawel_io_oeb[4] pawel_io_oeb[5] pawel_io_oeb[6] pawel_io_oeb[7]
+ pawel_io_oeb[8] pawel_io_oeb[9] pawel_io_out[0] pawel_io_out[10] pawel_io_out[11]
+ pawel_io_out[12] pawel_io_out[1] pawel_io_out[2] pawel_io_out[3] pawel_io_out[4]
+ pawel_io_out[5] pawel_io_out[6] pawel_io_out[7] pawel_io_out[8] pawel_io_out[9]
+ pawel_la_in[0] pawel_la_in[10] pawel_la_in[11] pawel_la_in[12] pawel_la_in[13] pawel_la_in[14]
+ pawel_la_in[15] pawel_la_in[1] pawel_la_in[2] pawel_la_in[3] pawel_la_in[4] pawel_la_in[5]
+ pawel_la_in[6] pawel_la_in[7] pawel_la_in[8] pawel_la_in[9] pawel_rst solos_clk
+ solos_ena solos_gpio_ready solos_io_in[0] solos_io_in[10] solos_io_in[11] solos_io_in[12]
+ solos_io_in[13] solos_io_in[14] solos_io_in[15] solos_io_in[16] solos_io_in[17]
+ solos_io_in[18] solos_io_in[19] solos_io_in[1] solos_io_in[20] solos_io_in[21] solos_io_in[22]
+ solos_io_in[23] solos_io_in[24] solos_io_in[25] solos_io_in[26] solos_io_in[27]
+ solos_io_in[28] solos_io_in[29] solos_io_in[2] solos_io_in[30] solos_io_in[31] solos_io_in[32]
+ solos_io_in[33] solos_io_in[34] solos_io_in[35] solos_io_in[36] solos_io_in[37]
+ solos_io_in[3] solos_io_in[4] solos_io_in[5] solos_io_in[6] solos_io_in[7] solos_io_in[8]
+ solos_io_in[9] solos_io_out[0] solos_io_out[10] solos_io_out[11] solos_io_out[12]
+ solos_io_out[1] solos_io_out[2] solos_io_out[3] solos_io_out[4] solos_io_out[5]
+ solos_io_out[6] solos_io_out[7] solos_io_out[8] solos_io_out[9] solos_rst trzf2_clk
+ trzf2_ena trzf2_io_in[0] trzf2_io_in[10] trzf2_io_in[11] trzf2_io_in[12] trzf2_io_in[13]
+ trzf2_io_in[14] trzf2_io_in[15] trzf2_io_in[16] trzf2_io_in[17] trzf2_io_in[18]
+ trzf2_io_in[19] trzf2_io_in[1] trzf2_io_in[20] trzf2_io_in[21] trzf2_io_in[22] trzf2_io_in[23]
+ trzf2_io_in[24] trzf2_io_in[25] trzf2_io_in[26] trzf2_io_in[27] trzf2_io_in[28]
+ trzf2_io_in[29] trzf2_io_in[2] trzf2_io_in[30] trzf2_io_in[31] trzf2_io_in[32] trzf2_io_in[33]
+ trzf2_io_in[34] trzf2_io_in[35] trzf2_io_in[36] trzf2_io_in[37] trzf2_io_in[3] trzf2_io_in[4]
+ trzf2_io_in[5] trzf2_io_in[6] trzf2_io_in[7] trzf2_io_in[8] trzf2_io_in[9] trzf2_la_in[0]
+ trzf2_la_in[10] trzf2_la_in[11] trzf2_la_in[12] trzf2_la_in[1] trzf2_la_in[2] trzf2_la_in[3]
+ trzf2_la_in[4] trzf2_la_in[5] trzf2_la_in[6] trzf2_la_in[7] trzf2_la_in[8] trzf2_la_in[9]
+ trzf2_o_gpout[0] trzf2_o_gpout[1] trzf2_o_gpout[2] trzf2_o_hsync trzf2_o_rgb[0]
+ trzf2_o_rgb[1] trzf2_o_rgb[2] trzf2_o_rgb[3] trzf2_o_rgb[4] trzf2_o_rgb[5] trzf2_o_tex_csb
+ trzf2_o_tex_oeb0 trzf2_o_tex_out0 trzf2_o_tex_sclk trzf2_o_vsync trzf2_rst trzf_clk
+ trzf_ena trzf_io_in[0] trzf_io_in[10] trzf_io_in[11] trzf_io_in[12] trzf_io_in[13]
+ trzf_io_in[14] trzf_io_in[15] trzf_io_in[16] trzf_io_in[17] trzf_io_in[18] trzf_io_in[19]
+ trzf_io_in[1] trzf_io_in[20] trzf_io_in[21] trzf_io_in[22] trzf_io_in[23] trzf_io_in[24]
+ trzf_io_in[25] trzf_io_in[26] trzf_io_in[27] trzf_io_in[28] trzf_io_in[29] trzf_io_in[2]
+ trzf_io_in[30] trzf_io_in[31] trzf_io_in[32] trzf_io_in[33] trzf_io_in[34] trzf_io_in[35]
+ trzf_io_in[36] trzf_io_in[37] trzf_io_in[3] trzf_io_in[4] trzf_io_in[5] trzf_io_in[6]
+ trzf_io_in[7] trzf_io_in[8] trzf_io_in[9] trzf_la_in[0] trzf_la_in[10] trzf_la_in[11]
+ trzf_la_in[12] trzf_la_in[1] trzf_la_in[2] trzf_la_in[3] trzf_la_in[4] trzf_la_in[5]
+ trzf_la_in[6] trzf_la_in[7] trzf_la_in[8] trzf_la_in[9] trzf_o_gpout[0] trzf_o_gpout[1]
+ trzf_o_gpout[2] trzf_o_hsync trzf_o_rgb[0] trzf_o_rgb[1] trzf_o_rgb[2] trzf_o_rgb[3]
+ trzf_o_rgb[4] trzf_o_rgb[5] trzf_o_tex_csb trzf_o_tex_oeb0 trzf_o_tex_out0 trzf_o_tex_sclk
+ trzf_o_vsync trzf_rst uri_clk uri_ena uri_io_in[0] uri_io_in[10] uri_io_in[11] uri_io_in[12]
+ uri_io_in[13] uri_io_in[14] uri_io_in[15] uri_io_in[16] uri_io_in[17] uri_io_in[18]
+ uri_io_in[19] uri_io_in[1] uri_io_in[20] uri_io_in[21] uri_io_in[22] uri_io_in[23]
+ uri_io_in[24] uri_io_in[25] uri_io_in[26] uri_io_in[27] uri_io_in[28] uri_io_in[29]
+ uri_io_in[2] uri_io_in[30] uri_io_in[31] uri_io_in[32] uri_io_in[33] uri_io_in[34]
+ uri_io_in[35] uri_io_in[36] uri_io_in[37] uri_io_in[3] uri_io_in[4] uri_io_in[5]
+ uri_io_in[6] uri_io_in[7] uri_io_in[8] uri_io_in[9] uri_io_oeb[0] uri_io_oeb[10]
+ uri_io_oeb[11] uri_io_oeb[12] uri_io_oeb[13] uri_io_oeb[14] uri_io_oeb[15] uri_io_oeb[16]
+ uri_io_oeb[17] uri_io_oeb[18] uri_io_oeb[1] uri_io_oeb[2] uri_io_oeb[3] uri_io_oeb[4]
+ uri_io_oeb[5] uri_io_oeb[6] uri_io_oeb[7] uri_io_oeb[8] uri_io_oeb[9] uri_io_out[0]
+ uri_io_out[10] uri_io_out[11] uri_io_out[12] uri_io_out[13] uri_io_out[14] uri_io_out[15]
+ uri_io_out[16] uri_io_out[17] uri_io_out[18] uri_io_out[1] uri_io_out[2] uri_io_out[3]
+ uri_io_out[4] uri_io_out[5] uri_io_out[6] uri_io_out[7] uri_io_out[8] uri_io_out[9]
+ uri_rst vdd vgasp_clk vgasp_ena vgasp_io_in[0] vgasp_io_in[10] vgasp_io_in[11] vgasp_io_in[12]
+ vgasp_io_in[13] vgasp_io_in[14] vgasp_io_in[15] vgasp_io_in[16] vgasp_io_in[17]
+ vgasp_io_in[18] vgasp_io_in[19] vgasp_io_in[1] vgasp_io_in[20] vgasp_io_in[21] vgasp_io_in[22]
+ vgasp_io_in[23] vgasp_io_in[24] vgasp_io_in[25] vgasp_io_in[26] vgasp_io_in[27]
+ vgasp_io_in[28] vgasp_io_in[29] vgasp_io_in[2] vgasp_io_in[30] vgasp_io_in[31] vgasp_io_in[32]
+ vgasp_io_in[33] vgasp_io_in[34] vgasp_io_in[35] vgasp_io_in[36] vgasp_io_in[37]
+ vgasp_io_in[3] vgasp_io_in[4] vgasp_io_in[5] vgasp_io_in[6] vgasp_io_in[7] vgasp_io_in[8]
+ vgasp_io_in[9] vgasp_rst vgasp_uio_oe[0] vgasp_uio_oe[1] vgasp_uio_oe[2] vgasp_uio_oe[3]
+ vgasp_uio_oe[4] vgasp_uio_oe[5] vgasp_uio_oe[6] vgasp_uio_oe[7] vgasp_uio_out[0]
+ vgasp_uio_out[1] vgasp_uio_out[2] vgasp_uio_out[3] vgasp_uio_out[4] vgasp_uio_out[5]
+ vgasp_uio_out[6] vgasp_uio_out[7] vgasp_uo_out[0] vgasp_uo_out[1] vgasp_uo_out[2]
+ vgasp_uo_out[3] vgasp_uo_out[4] vgasp_uo_out[5] vgasp_uo_out[6] vgasp_uo_out[7]
+ vss wb_clk_i wb_rst_i io_out[1] io_out[0]
XFILLER_0_39_1816 vdd vdd vss vss gf180mcu_fd_sc_mcu7t5v0__fillcap_4
XFILLER_0_20_1087 vdd vdd vss vss gf180mcu_fd_sc_mcu7t5v0__fillcap_64
XFILLER_0_8_4097 vdd vdd vss vss gf180mcu_fd_sc_mcu7t5v0__fillcap_64
XFILLER_0_37_2274 vdd vdd vss vss gf180mcu_fd_sc_mcu7t5v0__fillcap_16
XANTENNA__586__B2 net135 vdd vdd vss vss gf180mcu_fd_sc_mcu7t5v0__antenna
XANTENNA__586__A1 net22 vdd vdd vss vss gf180mcu_fd_sc_mcu7t5v0__antenna
XFILLER_0_4_1803 vdd vdd vss vss gf180mcu_fd_sc_mcu7t5v0__fill_2
XANTENNA_input108_I io_in[35] vdd vdd vss vss gf180mcu_fd_sc_mcu7t5v0__antenna
XFILLER_0_8_1983 vdd vdd vss vss gf180mcu_fd_sc_mcu7t5v0__fillcap_8
XFILLER_0_9_422 vdd vdd vss vss gf180mcu_fd_sc_mcu7t5v0__fillcap_64
XFILLER_0_45_520 vdd vdd vss vss gf180mcu_fd_sc_mcu7t5v0__fill_1
XANTENNA__338__A1 net160 vdd vdd vss vss gf180mcu_fd_sc_mcu7t5v0__antenna
XANTENNA__338__B2 net191 vdd vdd vss vss gf180mcu_fd_sc_mcu7t5v0__antenna
XFILLER_0_28_3601 vdd vdd vss vss gf180mcu_fd_sc_mcu7t5v0__fillcap_4
XTAP_TAPCELL_ROW_24_1633 vdd vss gf180mcu_fd_sc_mcu7t5v0__filltie
XTAP_TAPCELL_ROW_24_1622 vdd vss gf180mcu_fd_sc_mcu7t5v0__filltie
XFILLER_0_2_2250 vdd vdd vss vss gf180mcu_fd_sc_mcu7t5v0__fill_2
XTAP_TAPCELL_ROW_41_2681 vdd vss gf180mcu_fd_sc_mcu7t5v0__filltie
XTAP_TAPCELL_ROW_41_2670 vdd vss gf180mcu_fd_sc_mcu7t5v0__filltie
XTAP_TAPCELL_ROW_24_1666 vdd vss gf180mcu_fd_sc_mcu7t5v0__filltie
XTAP_TAPCELL_ROW_24_1655 vdd vss gf180mcu_fd_sc_mcu7t5v0__filltie
XTAP_TAPCELL_ROW_24_1644 vdd vss gf180mcu_fd_sc_mcu7t5v0__filltie
XTAP_TAPCELL_ROW_41_2692 vdd vss gf180mcu_fd_sc_mcu7t5v0__filltie
XFILLER_0_2_1593 vdd vdd vss vss gf180mcu_fd_sc_mcu7t5v0__fill_2
XFILLER_0_45_3981 vdd vdd vss vss gf180mcu_fd_sc_mcu7t5v0__fillcap_8
XFILLER_0_44_2201 vdd vdd vss vss gf180mcu_fd_sc_mcu7t5v0__fillcap_4
XFILLER_0_32_247 vdd vdd vss vss gf180mcu_fd_sc_mcu7t5v0__fillcap_64
XFILLER_0_45_3992 vdd vdd vss vss gf180mcu_fd_sc_mcu7t5v0__fillcap_64
XFILLER_0_28_2977 vdd vdd vss vss gf180mcu_fd_sc_mcu7t5v0__fillcap_64
XFILLER_0_26_3391 vdd vdd vss vss gf180mcu_fd_sc_mcu7t5v0__fillcap_4
XFILLER_0_4_171 vdd vdd vss vss gf180mcu_fd_sc_mcu7t5v0__fillcap_4
XANTENNA__510__A1 net57 vdd vdd vss vss gf180mcu_fd_sc_mcu7t5v0__antenna
XFILLER_0_44_1577 vdd vdd vss vss gf180mcu_fd_sc_mcu7t5v0__fillcap_8
XANTENNA__510__B2 net150 vdd vdd vss vss gf180mcu_fd_sc_mcu7t5v0__antenna
XTAP_TAPCELL_ROW_16_1150 vdd vss gf180mcu_fd_sc_mcu7t5v0__filltie
XTAP_TAPCELL_ROW_16_1161 vdd vss gf180mcu_fd_sc_mcu7t5v0__filltie
XTAP_TAPCELL_ROW_16_1172 vdd vss gf180mcu_fd_sc_mcu7t5v0__filltie
XANTENNA_output327_I net327 vdd vdd vss vss gf180mcu_fd_sc_mcu7t5v0__antenna
XTAP_TAPCELL_ROW_16_1183 vdd vss gf180mcu_fd_sc_mcu7t5v0__filltie
XFILLER_0_9_2448 vdd vdd vss vss gf180mcu_fd_sc_mcu7t5v0__fill_2
XFILLER_0_33_3362 vdd vdd vss vss gf180mcu_fd_sc_mcu7t5v0__fillcap_64
X_501_ _197_ net355 vdd vdd vss vss gf180mcu_fd_sc_mcu7t5v0__inv_1
XFILLER_0_9_1747 vdd vdd vss vss gf180mcu_fd_sc_mcu7t5v0__fill_1
XFILLER_0_16_2347 vdd vdd vss vss gf180mcu_fd_sc_mcu7t5v0__fillcap_64
XFILLER_0_7_2172 vdd vdd vss vss gf180mcu_fd_sc_mcu7t5v0__fillcap_32
X_432_ _136_ _138_ _143_ net340 vdd vdd vss vss gf180mcu_fd_sc_mcu7t5v0__nand3_4
XANTENNA__577__A1 net653 vdd vdd vss vss gf180mcu_fd_sc_mcu7t5v0__antenna
XFILLER_0_0_3636 vdd vdd vss vss gf180mcu_fd_sc_mcu7t5v0__fill_2
X_363_ net252 _075_ _077_ net126 net67 _083_ _084_ vdd vdd vss vss gf180mcu_fd_sc_mcu7t5v0__aoi222_4
XANTENNA__592__C _200_ vdd vdd vss vss gf180mcu_fd_sc_mcu7t5v0__antenna
X_294_ _022_ net259 vdd vdd vss vss gf180mcu_fd_sc_mcu7t5v0__buf_4
XFILLER_0_36_597 vdd vdd vss vss gf180mcu_fd_sc_mcu7t5v0__fillcap_64
XANTENNA__344__A4 _066_ vdd vdd vss vss gf180mcu_fd_sc_mcu7t5v0__antenna
XFILLER_0_24_737 vdd vdd vss vss gf180mcu_fd_sc_mcu7t5v0__fillcap_64
XFILLER_0_40_2621 vdd vdd vss vss gf180mcu_fd_sc_mcu7t5v0__fillcap_4
XFILLER_0_23_1606 vdd vdd vss vss gf180mcu_fd_sc_mcu7t5v0__fillcap_4
XTAP_TAPCELL_ROW_47_3013 vdd vss gf180mcu_fd_sc_mcu7t5v0__filltie
XFILLER_0_40_1997 vdd vdd vss vss gf180mcu_fd_sc_mcu7t5v0__fillcap_64
XFILLER_0_38_3251 vdd vdd vss vss gf180mcu_fd_sc_mcu7t5v0__fillcap_4
XFILLER_0_21_1396 vdd vdd vss vss gf180mcu_fd_sc_mcu7t5v0__fillcap_4
XFILLER_0_5_4204 vdd vdd vss vss gf180mcu_fd_sc_mcu7t5v0__fill_1
XTAP_TAPCELL_ROW_47_3057 vdd vss gf180mcu_fd_sc_mcu7t5v0__filltie
XTAP_TAPCELL_ROW_47_3046 vdd vss gf180mcu_fd_sc_mcu7t5v0__filltie
XTAP_TAPCELL_ROW_47_3035 vdd vss gf180mcu_fd_sc_mcu7t5v0__filltie
XTAP_TAPCELL_ROW_47_3024 vdd vss gf180mcu_fd_sc_mcu7t5v0__filltie
XTAP_TAPCELL_ROW_47_3079 vdd vss gf180mcu_fd_sc_mcu7t5v0__filltie
XTAP_TAPCELL_ROW_47_3068 vdd vss gf180mcu_fd_sc_mcu7t5v0__filltie
XFILLER_0_5_2802 vdd vdd vss vss gf180mcu_fd_sc_mcu7t5v0__fillcap_64
XFILLER_0_8_1224 vdd vdd vss vss gf180mcu_fd_sc_mcu7t5v0__fill_1
XANTENNA__568__B2 net139 vdd vdd vss vss gf180mcu_fd_sc_mcu7t5v0__antenna
XANTENNA__568__A1 net14 vdd vdd vss vss gf180mcu_fd_sc_mcu7t5v0__antenna
XFILLER_0_47_818 vdd vdd vss vss gf180mcu_fd_sc_mcu7t5v0__fillcap_4
XFILLER_0_46_328 vdd vdd vss vss gf180mcu_fd_sc_mcu7t5v0__fillcap_8
XFILLER_0_46_317 vdd vdd vss vss gf180mcu_fd_sc_mcu7t5v0__fillcap_8
XFILLER_0_12_2767 vdd vdd vss vss gf180mcu_fd_sc_mcu7t5v0__fillcap_64
XFILLER_0_3_2592 vdd vdd vss vss gf180mcu_fd_sc_mcu7t5v0__fillcap_64
XFILLER_0_10_3181 vdd vdd vss vss gf180mcu_fd_sc_mcu7t5v0__fillcap_4
XFILLER_0_47_2819 vdd vdd vss vss gf180mcu_fd_sc_mcu7t5v0__fill_2
XFILLER_0_45_3222 vdd vdd vss vss gf180mcu_fd_sc_mcu7t5v0__fill_1
XFILLER_0_28_2207 vdd vdd vss vss gf180mcu_fd_sc_mcu7t5v0__fillcap_64
XFILLER_0_14_247 vdd vdd vss vss gf180mcu_fd_sc_mcu7t5v0__fillcap_64
XANTENNA__802__I net654 vdd vdd vss vss gf180mcu_fd_sc_mcu7t5v0__antenna
Xoutput401 net401 pawel_io_in[8] vdd vdd vss vss gf180mcu_fd_sc_mcu7t5v0__buf_8
Xoutput423 net423 solos_io_in[0] vdd vdd vss vss gf180mcu_fd_sc_mcu7t5v0__buf_8
Xoutput434 net434 solos_io_in[1] vdd vdd vss vss gf180mcu_fd_sc_mcu7t5v0__buf_8
XFILLER_0_2_675 vdd vdd vss vss gf180mcu_fd_sc_mcu7t5v0__fill_1
Xoutput412 net412 pawel_la_in[3] vdd vdd vss vss gf180mcu_fd_sc_mcu7t5v0__buf_8
Xoutput445 net445 solos_io_in[2] vdd vdd vss vss gf180mcu_fd_sc_mcu7t5v0__buf_8
Xoutput456 net456 solos_io_in[5] vdd vdd vss vss gf180mcu_fd_sc_mcu7t5v0__buf_8
Xoutput467 net467 trzf2_io_in[12] vdd vdd vss vss gf180mcu_fd_sc_mcu7t5v0__buf_8
Xoutput478 net478 trzf2_io_in[22] vdd vdd vss vss gf180mcu_fd_sc_mcu7t5v0__buf_8
XFILLER_0_2_686 vdd vdd vss vss gf180mcu_fd_sc_mcu7t5v0__fillcap_4
XTAP_TAPCELL_ROW_7_608 vdd vss gf180mcu_fd_sc_mcu7t5v0__filltie
XTAP_TAPCELL_ROW_7_619 vdd vss gf180mcu_fd_sc_mcu7t5v0__filltie
XFILLER_0_11_976 vdd vdd vss vss gf180mcu_fd_sc_mcu7t5v0__fillcap_4
Xoutput489 net489 trzf2_io_in[32] vdd vdd vss vss gf180mcu_fd_sc_mcu7t5v0__buf_8
XTAP_TAPCELL_ROW_2_313 vdd vss gf180mcu_fd_sc_mcu7t5v0__filltie
XTAP_TAPCELL_ROW_2_302 vdd vss gf180mcu_fd_sc_mcu7t5v0__filltie
XANTENNA_input225_I uri_io_out[12] vdd vdd vss vss gf180mcu_fd_sc_mcu7t5v0__antenna
XTAP_TAPCELL_ROW_2_324 vdd vss gf180mcu_fd_sc_mcu7t5v0__filltie
XTAP_TAPCELL_ROW_2_335 vdd vss gf180mcu_fd_sc_mcu7t5v0__filltie
XFILLER_0_34_3671 vdd vdd vss vss gf180mcu_fd_sc_mcu7t5v0__fillcap_4
XFILLER_0_17_2656 vdd vdd vss vss gf180mcu_fd_sc_mcu7t5v0__fillcap_4
XFILLER_0_38_807 vdd vdd vss vss gf180mcu_fd_sc_mcu7t5v0__fillcap_64
XTAP_TAPCELL_ROW_43_2765 vdd vss gf180mcu_fd_sc_mcu7t5v0__filltie
XFILLER_0_33_1256 vdd vdd vss vss gf180mcu_fd_sc_mcu7t5v0__fillcap_4
XTAP_TAPCELL_ROW_26_1739 vdd vss gf180mcu_fd_sc_mcu7t5v0__filltie
XFILLER_0_13_1819 vdd vdd vss vss gf180mcu_fd_sc_mcu7t5v0__fill_1
XTAP_TAPCELL_ROW_43_2798 vdd vss gf180mcu_fd_sc_mcu7t5v0__filltie
XTAP_TAPCELL_ROW_43_2787 vdd vss gf180mcu_fd_sc_mcu7t5v0__filltie
XTAP_TAPCELL_ROW_43_2776 vdd vss gf180mcu_fd_sc_mcu7t5v0__filltie
XFILLER_0_46_873 vdd vdd vss vss gf180mcu_fd_sc_mcu7t5v0__fill_2
XFILLER_0_18_597 vdd vdd vss vss gf180mcu_fd_sc_mcu7t5v0__fillcap_64
XFILLER_0_43_3918 vdd vdd vss vss gf180mcu_fd_sc_mcu7t5v0__fill_2
XFILLER_0_33_556 vdd vdd vss vss gf180mcu_fd_sc_mcu7t5v0__fillcap_4
XANTENNA__712__I net722 vdd vdd vss vss gf180mcu_fd_sc_mcu7t5v0__antenna
XFILLER_0_41_3642 vdd vdd vss vss gf180mcu_fd_sc_mcu7t5v0__fillcap_64
XFILLER_0_24_2627 vdd vdd vss vss gf180mcu_fd_sc_mcu7t5v0__fillcap_64
XFILLER_0_22_3041 vdd vdd vss vss gf180mcu_fd_sc_mcu7t5v0__fillcap_4
XFILLER_0_44_1352 vdd vdd vss vss gf180mcu_fd_sc_mcu7t5v0__fill_2
XFILLER_0_40_1227 vdd vdd vss vss gf180mcu_fd_sc_mcu7t5v0__fillcap_64
XTAP_TAPCELL_ROW_18_1267 vdd vss gf180mcu_fd_sc_mcu7t5v0__filltie
XTAP_TAPCELL_ROW_18_1256 vdd vss gf180mcu_fd_sc_mcu7t5v0__filltie
XTAP_TAPCELL_ROW_35_2293 vdd vss gf180mcu_fd_sc_mcu7t5v0__filltie
XTAP_TAPCELL_ROW_35_2282 vdd vss gf180mcu_fd_sc_mcu7t5v0__filltie
XTAP_TAPCELL_ROW_18_1289 vdd vss gf180mcu_fd_sc_mcu7t5v0__filltie
XTAP_TAPCELL_ROW_18_1278 vdd vss gf180mcu_fd_sc_mcu7t5v0__filltie
Xfanout683 net85 net683 vdd vdd vss vss gf180mcu_fd_sc_mcu7t5v0__buf_2
Xfanout661 net96 net661 vdd vdd vss vss gf180mcu_fd_sc_mcu7t5v0__clkbuf_3
Xfanout672 net90 net672 vdd vdd vss vss gf180mcu_fd_sc_mcu7t5v0__buf_4
Xfanout694 net256 net694 vdd vdd vss vss gf180mcu_fd_sc_mcu7t5v0__buf_4
XFILLER_0_9_2234 vdd vdd vss vss gf180mcu_fd_sc_mcu7t5v0__fill_2
XFILLER_0_34_28 vdd vdd vss vss gf180mcu_fd_sc_mcu7t5v0__fill_2
XFILLER_0_18_1708 vdd vdd vss vss gf180mcu_fd_sc_mcu7t5v0__fillcap_4
XFILLER_0_9_2267 vdd vdd vss vss gf180mcu_fd_sc_mcu7t5v0__fill_2
XFILLER_0_9_2289 vdd vdd vss vss gf180mcu_fd_sc_mcu7t5v0__fill_2
X_415_ _120_ _121_ _122_ _128_ net338 vdd vdd vss vss gf180mcu_fd_sc_mcu7t5v0__nand4_4
XFILLER_0_28_317 vdd vdd vss vss gf180mcu_fd_sc_mcu7t5v0__fillcap_64
XFILLER_0_0_3433 vdd vdd vss vss gf180mcu_fd_sc_mcu7t5v0__fill_1
X_346_ _030_ _068_ vdd vdd vss vss gf180mcu_fd_sc_mcu7t5v0__buf_4
XFILLER_0_3_1154 vdd vdd vss vss gf180mcu_fd_sc_mcu7t5v0__fillcap_16
XFILLER_0_29_2516 vdd vdd vss vss gf180mcu_fd_sc_mcu7t5v0__fillcap_4
X_277_ _007_ _008_ vdd vdd vss vss gf180mcu_fd_sc_mcu7t5v0__clkbuf_2
XFILLER_0_45_1105 vdd vdd vss vss gf180mcu_fd_sc_mcu7t5v0__fill_1
XFILLER_0_11_206 vdd vdd vss vss gf180mcu_fd_sc_mcu7t5v0__fillcap_4
XANTENNA__486__B1 _141_ vdd vdd vss vss gf180mcu_fd_sc_mcu7t5v0__antenna
XFILLER_0_18_3677 vdd vdd vss vss gf180mcu_fd_sc_mcu7t5v0__fillcap_64
XFILLER_0_5_4056 vdd vdd vss vss gf180mcu_fd_sc_mcu7t5v0__fillcap_4
XFILLER_0_16_4091 vdd vdd vss vss gf180mcu_fd_sc_mcu7t5v0__fillcap_4
XFILLER_0_34_2277 vdd vdd vss vss gf180mcu_fd_sc_mcu7t5v0__fillcap_4
XFILLER_0_1_3219 vdd vdd vss vss gf180mcu_fd_sc_mcu7t5v0__fill_1
XFILLER_0_5_1920 vdd vdd vss vss gf180mcu_fd_sc_mcu7t5v0__fill_2
XFILLER_0_47_648 vdd vdd vss vss gf180mcu_fd_sc_mcu7t5v0__fillcap_4
XFILLER_0_8_1087 vdd vdd vss vss gf180mcu_fd_sc_mcu7t5v0__fillcap_64
XFILLER_0_12_2553 vdd vdd vss vss gf180mcu_fd_sc_mcu7t5v0__fill_2
XANTENNA__532__I _130_ vdd vdd vss vss gf180mcu_fd_sc_mcu7t5v0__antenna
XFILLER_0_15_556 vdd vdd vss vss gf180mcu_fd_sc_mcu7t5v0__fillcap_4
XFILLER_0_45_2373 vdd vdd vss vss gf180mcu_fd_sc_mcu7t5v0__fillcap_4
XANTENNA_input175_I trzf2_o_gpout[2] vdd vdd vss vss gf180mcu_fd_sc_mcu7t5v0__antenna
XFILLER_0_42_3951 vdd vdd vss vss gf180mcu_fd_sc_mcu7t5v0__fillcap_4