*SPEF "ieee 1481-1999"
*DESIGN "user_project_wrapper"
*DATE "11:11:11 Fri 11 11, 1111"
*VENDOR "OpenRCX"
*PROGRAM "Parallel Extraction"
*VERSION "1.0"
*DESIGN_FLOW "NAME_SCOPE LOCAL" "PIN_CAP NONE"
*DIVIDER /
*DELIMITER :
*BUS_DELIMITER []
*T_UNIT 1 NS
*C_UNIT 1 PF
*R_UNIT 1 OHM
*L_UNIT 1 HENRY

*NAME_MAP
*1 io_in[0]
*2 io_in[10]
*3 io_in[11]
*4 io_in[12]
*5 io_in[13]
*6 io_in[14]
*7 io_in[15]
*8 io_in[16]
*9 io_in[17]
*10 io_in[18]
*11 io_in[19]
*12 io_in[1]
*13 io_in[20]
*14 io_in[21]
*15 io_in[22]
*16 io_in[23]
*17 io_in[24]
*18 io_in[25]
*19 io_in[26]
*20 io_in[27]
*21 io_in[28]
*22 io_in[29]
*23 io_in[2]
*24 io_in[30]
*25 io_in[31]
*26 io_in[32]
*27 io_in[33]
*28 io_in[34]
*29 io_in[35]
*30 io_in[36]
*31 io_in[37]
*32 io_in[3]
*33 io_in[4]
*34 io_in[5]
*35 io_in[6]
*36 io_in[7]
*37 io_in[8]
*38 io_in[9]
*39 io_oeb[0]
*40 io_oeb[10]
*41 io_oeb[11]
*42 io_oeb[12]
*43 io_oeb[13]
*44 io_oeb[14]
*45 io_oeb[15]
*46 anton_io_oeb\[4\]
*47 io_oeb[17]
*48 io_oeb[18]
*49 io_oeb[19]
*50 io_oeb[1]
*51 io_oeb[20]
*52 io_oeb[21]
*53 io_oeb[22]
*54 io_oeb[23]
*55 io_oeb[24]
*56 io_oeb[25]
*57 io_oeb[26]
*58 io_oeb[27]
*59 io_oeb[28]
*60 io_oeb[29]
*61 io_oeb[2]
*62 io_oeb[30]
*63 io_oeb[31]
*64 io_oeb[32]
*65 io_oeb[33]
*66 io_oeb[34]
*67 io_oeb[35]
*68 io_oeb[36]
*69 io_oeb[37]
*70 io_oeb[3]
*71 io_oeb[4]
*72 io_oeb[5]
*73 io_oeb[6]
*74 io_oeb[7]
*75 io_oeb[8]
*76 io_oeb[9]
*77 io_out[0]
*78 io_out[10]
*79 io_out[11]
*80 anton_io_out\[0\]
*81 anton_io_out\[1\]
*82 anton_io_out\[2\]
*83 anton_io_out\[3\]
*84 anton_io_out\[4\]
*85 io_out[17]
*86 io_out[18]
*87 io_out[19]
*88 io_out[1]
*89 io_out[20]
*90 io_out[21]
*91 io_out[22]
*92 io_out[23]
*93 io_out[24]
*94 io_out[25]
*95 io_out[26]
*96 io_out[27]
*97 io_out[28]
*98 io_out[29]
*99 io_out[2]
*100 io_out[30]
*101 io_out[31]
*102 io_out[32]
*103 io_out[33]
*104 io_out[34]
*105 io_out[35]
*106 io_out[36]
*107 io_out[37]
*108 io_out[3]
*109 io_out[4]
*110 io_out[5]
*111 io_out[6]
*112 io_out[7]
*113 io_out[8]
*114 io_out[9]
*115 la_data_in[0]
*116 la_data_in[10]
*117 la_data_in[11]
*118 la_data_in[12]
*119 la_data_in[13]
*120 la_data_in[14]
*121 la_data_in[15]
*122 la_data_in[16]
*123 la_data_in[17]
*124 la_data_in[18]
*125 la_data_in[19]
*126 la_data_in[1]
*127 la_data_in[20]
*128 la_data_in[21]
*129 la_data_in[22]
*130 la_data_in[23]
*131 la_data_in[24]
*132 la_data_in[25]
*133 la_data_in[26]
*134 la_data_in[27]
*135 la_data_in[28]
*136 la_data_in[29]
*137 la_data_in[2]
*138 la_data_in[30]
*139 la_data_in[31]
*140 la_data_in[32]
*141 la_data_in[33]
*142 la_data_in[34]
*143 la_data_in[35]
*144 la_data_in[36]
*145 la_data_in[37]
*146 la_data_in[38]
*147 la_data_in[39]
*148 la_data_in[3]
*149 la_data_in[40]
*150 la_data_in[41]
*151 la_data_in[42]
*152 la_data_in[43]
*153 la_data_in[44]
*154 la_data_in[45]
*155 la_data_in[46]
*156 la_data_in[47]
*157 la_data_in[48]
*158 la_data_in[49]
*159 la_data_in[4]
*160 la_data_in[50]
*161 la_data_in[51]
*162 la_data_in[52]
*163 la_data_in[53]
*164 la_data_in[54]
*165 la_data_in[55]
*166 la_data_in[56]
*167 la_data_in[57]
*168 la_data_in[58]
*169 la_data_in[59]
*170 la_data_in[5]
*171 la_data_in[60]
*172 la_data_in[61]
*173 la_data_in[62]
*174 la_data_in[63]
*175 la_data_in[6]
*176 la_data_in[7]
*177 la_data_in[8]
*178 la_data_in[9]
*179 la_data_out[0]
*180 la_data_out[10]
*181 la_data_out[11]
*182 la_data_out[12]
*183 la_data_out[13]
*184 la_data_out[14]
*185 la_data_out[15]
*186 la_data_out[16]
*187 la_data_out[17]
*188 la_data_out[18]
*189 la_data_out[19]
*190 la_data_out[1]
*191 la_data_out[20]
*192 la_data_out[21]
*193 la_data_out[22]
*194 la_data_out[23]
*195 la_data_out[24]
*196 la_data_out[25]
*197 la_data_out[26]
*198 la_data_out[27]
*199 la_data_out[28]
*200 la_data_out[29]
*201 la_data_out[2]
*202 la_data_out[30]
*203 la_data_out[31]
*204 la_data_out[32]
*205 la_data_out[33]
*206 la_data_out[34]
*207 la_data_out[35]
*208 la_data_out[36]
*209 la_data_out[37]
*210 la_data_out[38]
*211 la_data_out[39]
*212 la_data_out[3]
*213 la_data_out[40]
*214 la_data_out[41]
*215 la_data_out[42]
*216 la_data_out[43]
*217 la_data_out[44]
*218 la_data_out[45]
*219 la_data_out[46]
*220 la_data_out[47]
*221 la_data_out[48]
*222 la_data_out[49]
*223 la_data_out[4]
*224 la_data_out[50]
*225 la_data_out[51]
*226 la_data_out[52]
*227 la_data_out[53]
*228 la_data_out[54]
*229 la_data_out[55]
*230 la_data_out[56]
*231 la_data_out[57]
*232 la_data_out[58]
*233 la_data_out[59]
*234 la_data_out[5]
*235 la_data_out[60]
*236 la_data_out[61]
*237 la_data_out[62]
*238 la_data_out[63]
*239 la_data_out[6]
*240 la_data_out[7]
*241 la_data_out[8]
*242 la_data_out[9]
*243 la_oenb[0]
*244 la_oenb[10]
*245 la_oenb[11]
*246 la_oenb[12]
*247 la_oenb[13]
*248 la_oenb[14]
*249 la_oenb[15]
*250 la_oenb[16]
*251 la_oenb[17]
*252 la_oenb[18]
*253 la_oenb[19]
*254 la_oenb[1]
*255 la_oenb[20]
*256 la_oenb[21]
*257 la_oenb[22]
*258 la_oenb[23]
*259 la_oenb[24]
*260 la_oenb[25]
*261 la_oenb[26]
*262 la_oenb[27]
*263 la_oenb[28]
*264 la_oenb[29]
*265 la_oenb[2]
*266 la_oenb[30]
*267 la_oenb[31]
*268 la_oenb[32]
*269 la_oenb[33]
*270 la_oenb[34]
*271 la_oenb[35]
*272 la_oenb[36]
*273 la_oenb[37]
*274 la_oenb[38]
*275 la_oenb[39]
*276 la_oenb[3]
*277 la_oenb[40]
*278 la_oenb[41]
*279 la_oenb[42]
*280 la_oenb[43]
*281 la_oenb[44]
*282 la_oenb[45]
*283 la_oenb[46]
*284 la_oenb[47]
*285 la_oenb[48]
*286 la_oenb[49]
*287 la_oenb[4]
*288 la_oenb[50]
*289 la_oenb[51]
*290 la_oenb[52]
*291 la_oenb[53]
*292 la_oenb[54]
*293 la_oenb[55]
*294 la_oenb[56]
*295 la_oenb[57]
*296 la_oenb[58]
*297 la_oenb[59]
*298 la_oenb[5]
*299 la_oenb[60]
*300 la_oenb[61]
*301 la_oenb[62]
*302 la_oenb[63]
*303 la_oenb[6]
*304 la_oenb[7]
*305 la_oenb[8]
*306 la_oenb[9]
*307 user_clock2
*308 user_irq[0]
*309 user_irq[1]
*310 user_irq[2]
*313 wb_clk_i
*314 wb_rst_i
*315 wbs_ack_o
*316 wbs_adr_i[0]
*317 wbs_adr_i[10]
*318 wbs_adr_i[11]
*319 wbs_adr_i[12]
*320 wbs_adr_i[13]
*321 wbs_adr_i[14]
*322 wbs_adr_i[15]
*323 wbs_adr_i[16]
*324 wbs_adr_i[17]
*325 wbs_adr_i[18]
*326 wbs_adr_i[19]
*327 wbs_adr_i[1]
*328 wbs_adr_i[20]
*329 wbs_adr_i[21]
*330 wbs_adr_i[22]
*331 wbs_adr_i[23]
*332 wbs_adr_i[24]
*333 wbs_adr_i[25]
*334 wbs_adr_i[26]
*335 wbs_adr_i[27]
*336 wbs_adr_i[28]
*337 wbs_adr_i[29]
*338 wbs_adr_i[2]
*339 wbs_adr_i[30]
*340 wbs_adr_i[31]
*341 wbs_adr_i[3]
*342 wbs_adr_i[4]
*343 wbs_adr_i[5]
*344 wbs_adr_i[6]
*345 wbs_adr_i[7]
*346 wbs_adr_i[8]
*347 wbs_adr_i[9]
*348 wbs_cyc_i
*349 wbs_dat_i[0]
*350 wbs_dat_i[10]
*351 wbs_dat_i[11]
*352 wbs_dat_i[12]
*353 wbs_dat_i[13]
*354 wbs_dat_i[14]
*355 wbs_dat_i[15]
*356 wbs_dat_i[16]
*357 wbs_dat_i[17]
*358 wbs_dat_i[18]
*359 wbs_dat_i[19]
*360 wbs_dat_i[1]
*361 wbs_dat_i[20]
*362 wbs_dat_i[21]
*363 wbs_dat_i[22]
*364 wbs_dat_i[23]
*365 wbs_dat_i[24]
*366 wbs_dat_i[25]
*367 wbs_dat_i[26]
*368 wbs_dat_i[27]
*369 wbs_dat_i[28]
*370 wbs_dat_i[29]
*371 wbs_dat_i[2]
*372 wbs_dat_i[30]
*373 wbs_dat_i[31]
*374 wbs_dat_i[3]
*375 wbs_dat_i[4]
*376 wbs_dat_i[5]
*377 wbs_dat_i[6]
*378 wbs_dat_i[7]
*379 wbs_dat_i[8]
*380 wbs_dat_i[9]
*381 wbs_dat_o[0]
*382 wbs_dat_o[10]
*383 wbs_dat_o[11]
*384 wbs_dat_o[12]
*385 wbs_dat_o[13]
*386 wbs_dat_o[14]
*387 wbs_dat_o[15]
*388 wbs_dat_o[16]
*389 wbs_dat_o[17]
*390 wbs_dat_o[18]
*391 wbs_dat_o[19]
*392 wbs_dat_o[1]
*393 wbs_dat_o[20]
*394 wbs_dat_o[21]
*395 wbs_dat_o[22]
*396 wbs_dat_o[23]
*397 wbs_dat_o[24]
*398 wbs_dat_o[25]
*399 wbs_dat_o[26]
*400 wbs_dat_o[27]
*401 wbs_dat_o[28]
*402 wbs_dat_o[29]
*403 wbs_dat_o[2]
*404 wbs_dat_o[30]
*405 wbs_dat_o[31]
*406 wbs_dat_o[3]
*407 wbs_dat_o[4]
*408 wbs_dat_o[5]
*409 wbs_dat_o[6]
*410 wbs_dat_o[7]
*411 wbs_dat_o[8]
*412 wbs_dat_o[9]
*413 wbs_sel_i[0]
*414 wbs_sel_i[1]
*415 wbs_sel_i[2]
*416 wbs_sel_i[3]
*417 wbs_stb_i
*418 wbs_we_i
*419 a0s\[10\]
*420 a0s\[11\]
*421 a0s\[12\]
*422 a0s\[13\]
*423 a0s\[14\]
*424 a0s\[15\]
*425 a0s\[9\]
*426 a1s\[10\]
*427 a1s\[11\]
*428 a1s\[12\]
*429 a1s\[13\]
*430 a1s\[14\]
*431 a1s\[15\]
*432 a1s\[1\]
*433 a1s\[2\]
*434 a1s\[3\]
*435 a1s\[4\]
*436 a1s\[5\]
*437 a1s\[6\]
*438 a1s\[7\]
*439 a1s\[8\]
*440 a1s\[9\]
*441 anton_gpout\[4\]
*442 anton_gpout\[5\]
*443 anton_o_reset
*444 top_ew_algofoogle

*PORTS
io_in[0] I
io_in[10] I
io_in[11] I
io_in[12] I
io_in[13] I
io_in[14] I
io_in[15] I
io_in[16] I
io_in[17] I
io_in[18] I
io_in[19] I
io_in[1] I
io_in[20] I
io_in[21] I
io_in[22] I
io_in[23] I
io_in[24] I
io_in[25] I
io_in[26] I
io_in[27] I
io_in[28] I
io_in[29] I
io_in[2] I
io_in[30] I
io_in[31] I
io_in[32] I
io_in[33] I
io_in[34] I
io_in[35] I
io_in[36] I
io_in[37] I
io_in[3] I
io_in[4] I
io_in[5] I
io_in[6] I
io_in[7] I
io_in[8] I
io_in[9] I
io_oeb[0] O
io_oeb[10] O
io_oeb[11] O
io_oeb[12] O
io_oeb[13] O
io_oeb[14] O
io_oeb[15] O
io_oeb[16] O
io_oeb[17] O
io_oeb[18] O
io_oeb[19] O
io_oeb[1] O
io_oeb[20] O
io_oeb[21] O
io_oeb[22] O
io_oeb[23] O
io_oeb[24] O
io_oeb[25] O
io_oeb[26] O
io_oeb[27] O
io_oeb[28] O
io_oeb[29] O
io_oeb[2] O
io_oeb[30] O
io_oeb[31] O
io_oeb[32] O
io_oeb[33] O
io_oeb[34] O
io_oeb[35] O
io_oeb[36] O
io_oeb[37] O
io_oeb[3] O
io_oeb[4] O
io_oeb[5] O
io_oeb[6] O
io_oeb[7] O
io_oeb[8] O
io_oeb[9] O
io_out[0] O
io_out[10] O
io_out[11] O
io_out[12] O
io_out[13] O
io_out[14] O
io_out[15] O
io_out[16] O
io_out[17] O
io_out[18] O
io_out[19] O
io_out[1] O
io_out[20] O
io_out[21] O
io_out[22] O
io_out[23] O
io_out[24] O
io_out[25] O
io_out[26] O
io_out[27] O
io_out[28] O
io_out[29] O
io_out[2] O
io_out[30] O
io_out[31] O
io_out[32] O
io_out[33] O
io_out[34] O
io_out[35] O
io_out[36] O
io_out[37] O
io_out[3] O
io_out[4] O
io_out[5] O
io_out[6] O
io_out[7] O
io_out[8] O
io_out[9] O
la_data_in[0] I
la_data_in[10] I
la_data_in[11] I
la_data_in[12] I
la_data_in[13] I
la_data_in[14] I
la_data_in[15] I
la_data_in[16] I
la_data_in[17] I
la_data_in[18] I
la_data_in[19] I
la_data_in[1] I
la_data_in[20] I
la_data_in[21] I
la_data_in[22] I
la_data_in[23] I
la_data_in[24] I
la_data_in[25] I
la_data_in[26] I
la_data_in[27] I
la_data_in[28] I
la_data_in[29] I
la_data_in[2] I
la_data_in[30] I
la_data_in[31] I
la_data_in[32] I
la_data_in[33] I
la_data_in[34] I
la_data_in[35] I
la_data_in[36] I
la_data_in[37] I
la_data_in[38] I
la_data_in[39] I
la_data_in[3] I
la_data_in[40] I
la_data_in[41] I
la_data_in[42] I
la_data_in[43] I
la_data_in[44] I
la_data_in[45] I
la_data_in[46] I
la_data_in[47] I
la_data_in[48] I
la_data_in[49] I
la_data_in[4] I
la_data_in[50] I
la_data_in[51] I
la_data_in[52] I
la_data_in[53] I
la_data_in[54] I
la_data_in[55] I
la_data_in[56] I
la_data_in[57] I
la_data_in[58] I
la_data_in[59] I
la_data_in[5] I
la_data_in[60] I
la_data_in[61] I
la_data_in[62] I
la_data_in[63] I
la_data_in[6] I
la_data_in[7] I
la_data_in[8] I
la_data_in[9] I
la_data_out[0] O
la_data_out[10] O
la_data_out[11] O
la_data_out[12] O
la_data_out[13] O
la_data_out[14] O
la_data_out[15] O
la_data_out[16] O
la_data_out[17] O
la_data_out[18] O
la_data_out[19] O
la_data_out[1] O
la_data_out[20] O
la_data_out[21] O
la_data_out[22] O
la_data_out[23] O
la_data_out[24] O
la_data_out[25] O
la_data_out[26] O
la_data_out[27] O
la_data_out[28] O
la_data_out[29] O
la_data_out[2] O
la_data_out[30] O
la_data_out[31] O
la_data_out[32] O
la_data_out[33] O
la_data_out[34] O
la_data_out[35] O
la_data_out[36] O
la_data_out[37] O
la_data_out[38] O
la_data_out[39] O
la_data_out[3] O
la_data_out[40] O
la_data_out[41] O
la_data_out[42] O
la_data_out[43] O
la_data_out[44] O
la_data_out[45] O
la_data_out[46] O
la_data_out[47] O
la_data_out[48] O
la_data_out[49] O
la_data_out[4] O
la_data_out[50] O
la_data_out[51] O
la_data_out[52] O
la_data_out[53] O
la_data_out[54] O
la_data_out[55] O
la_data_out[56] O
la_data_out[57] O
la_data_out[58] O
la_data_out[59] O
la_data_out[5] O
la_data_out[60] O
la_data_out[61] O
la_data_out[62] O
la_data_out[63] O
la_data_out[6] O
la_data_out[7] O
la_data_out[8] O
la_data_out[9] O
la_oenb[0] I
la_oenb[10] I
la_oenb[11] I
la_oenb[12] I
la_oenb[13] I
la_oenb[14] I
la_oenb[15] I
la_oenb[16] I
la_oenb[17] I
la_oenb[18] I
la_oenb[19] I
la_oenb[1] I
la_oenb[20] I
la_oenb[21] I
la_oenb[22] I
la_oenb[23] I
la_oenb[24] I
la_oenb[25] I
la_oenb[26] I
la_oenb[27] I
la_oenb[28] I
la_oenb[29] I
la_oenb[2] I
la_oenb[30] I
la_oenb[31] I
la_oenb[32] I
la_oenb[33] I
la_oenb[34] I
la_oenb[35] I
la_oenb[36] I
la_oenb[37] I
la_oenb[38] I
la_oenb[39] I
la_oenb[3] I
la_oenb[40] I
la_oenb[41] I
la_oenb[42] I
la_oenb[43] I
la_oenb[44] I
la_oenb[45] I
la_oenb[46] I
la_oenb[47] I
la_oenb[48] I
la_oenb[49] I
la_oenb[4] I
la_oenb[50] I
la_oenb[51] I
la_oenb[52] I
la_oenb[53] I
la_oenb[54] I
la_oenb[55] I
la_oenb[56] I
la_oenb[57] I
la_oenb[58] I
la_oenb[59] I
la_oenb[5] I
la_oenb[60] I
la_oenb[61] I
la_oenb[62] I
la_oenb[63] I
la_oenb[6] I
la_oenb[7] I
la_oenb[8] I
la_oenb[9] I
user_clock2 I
user_irq[0] O
user_irq[1] O
user_irq[2] O
wb_clk_i I
wb_rst_i I
wbs_ack_o O
wbs_adr_i[0] I
wbs_adr_i[10] I
wbs_adr_i[11] I
wbs_adr_i[12] I
wbs_adr_i[13] I
wbs_adr_i[14] I
wbs_adr_i[15] I
wbs_adr_i[16] I
wbs_adr_i[17] I
wbs_adr_i[18] I
wbs_adr_i[19] I
wbs_adr_i[1] I
wbs_adr_i[20] I
wbs_adr_i[21] I
wbs_adr_i[22] I
wbs_adr_i[23] I
wbs_adr_i[24] I
wbs_adr_i[25] I
wbs_adr_i[26] I
wbs_adr_i[27] I
wbs_adr_i[28] I
wbs_adr_i[29] I
wbs_adr_i[2] I
wbs_adr_i[30] I
wbs_adr_i[31] I
wbs_adr_i[3] I
wbs_adr_i[4] I
wbs_adr_i[5] I
wbs_adr_i[6] I
wbs_adr_i[7] I
wbs_adr_i[8] I
wbs_adr_i[9] I
wbs_cyc_i I
wbs_dat_i[0] I
wbs_dat_i[10] I
wbs_dat_i[11] I
wbs_dat_i[12] I
wbs_dat_i[13] I
wbs_dat_i[14] I
wbs_dat_i[15] I
wbs_dat_i[16] I
wbs_dat_i[17] I
wbs_dat_i[18] I
wbs_dat_i[19] I
wbs_dat_i[1] I
wbs_dat_i[20] I
wbs_dat_i[21] I
wbs_dat_i[22] I
wbs_dat_i[23] I
wbs_dat_i[24] I
wbs_dat_i[25] I
wbs_dat_i[26] I
wbs_dat_i[27] I
wbs_dat_i[28] I
wbs_dat_i[29] I
wbs_dat_i[2] I
wbs_dat_i[30] I
wbs_dat_i[31] I
wbs_dat_i[3] I
wbs_dat_i[4] I
wbs_dat_i[5] I
wbs_dat_i[6] I
wbs_dat_i[7] I
wbs_dat_i[8] I
wbs_dat_i[9] I
wbs_dat_o[0] O
wbs_dat_o[10] O
wbs_dat_o[11] O
wbs_dat_o[12] O
wbs_dat_o[13] O
wbs_dat_o[14] O
wbs_dat_o[15] O
wbs_dat_o[16] O
wbs_dat_o[17] O
wbs_dat_o[18] O
wbs_dat_o[19] O
wbs_dat_o[1] O
wbs_dat_o[20] O
wbs_dat_o[21] O
wbs_dat_o[22] O
wbs_dat_o[23] O
wbs_dat_o[24] O
wbs_dat_o[25] O
wbs_dat_o[26] O
wbs_dat_o[27] O
wbs_dat_o[28] O
wbs_dat_o[29] O
wbs_dat_o[2] O
wbs_dat_o[30] O
wbs_dat_o[31] O
wbs_dat_o[3] O
wbs_dat_o[4] O
wbs_dat_o[5] O
wbs_dat_o[6] O
wbs_dat_o[7] O
wbs_dat_o[8] O
wbs_dat_o[9] O
wbs_sel_i[0] I
wbs_sel_i[1] I
wbs_sel_i[2] I
wbs_sel_i[3] I
wbs_stb_i I
wbs_we_i I

*D_NET *3 0.199332
*CONN
*P io_in[11] I
*I *444:i_clk I *D top_ew_algofoogle
*CAP
1 io_in[11] 0.00191196
2 *444:i_clk 0.00420921
3 *3:13 0.0740989
4 *3:11 0.0698896
5 *3:9 0.023655
6 *3:7 0.025567
*RES
1 io_in[11] *3:7 18.225 
2 *3:7 *3:9 192.69 
3 *3:9 *3:11 4.5 
4 *3:11 *3:13 560.43 
5 *3:13 *444:i_clk 42.615 
*END

*D_NET *8 0.291029
*CONN
*P io_in[16] I
*I *444:i_tex_in[0] I *D top_ew_algofoogle
*CAP
1 io_in[16] 0.0564471
2 *444:i_tex_in[0] 0.000958122
3 *8:13 0.0196772
4 *8:11 0.0187191
5 *8:9 0.0566826
6 *8:7 0.0566826
7 *8:5 0.0564471
8 *444:i_tex_in[0] *444:i_gpout5_sel[0] 0.000126296
9 *444:i_tex_in[0] *82:7 0.000119186
10 *8:13 *79:9 0.000372594
11 *8:13 *80:9 0.00842294
12 *8:13 *116:13 0.00882948
13 *8:13 *117:13 0.000177693
14 *8:13 *118:13 0.000745605
15 *8:13 *121:13 0.00603912
16 *8:13 *131:13 0.000128849
17 *8:13 *150:13 0.000453609
*RES
1 io_in[16] *8:5 434.925 
2 *8:5 *8:7 4.5 
3 *8:7 *8:9 453.51 
4 *8:9 *8:11 4.5 
5 *8:11 *8:13 170.91 
6 *8:13 *444:i_tex_in[0] 10.485 
*END

*D_NET *25 0.122873
*CONN
*P io_in[31] I
*I *444:i_tex_in[1] I *D top_ew_algofoogle
*CAP
1 io_in[31] 0.000773366
2 *444:i_tex_in[1] 0.0478569
3 *25:11 0.0478569
4 *25:9 0.0109437
5 *25:7 0.011717
6 *444:i_tex_in[1] *444:i_gpout0_sel[2] 1.11778e-05
7 *444:i_tex_in[1] *444:i_gpout0_sel[3] 3.67941e-05
8 *25:9 *26:11 0.000559129
9 *25:9 *28:9 0.00311755
*RES
1 io_in[31] *25:7 10.845 
2 *25:7 *25:9 95.31 
3 *25:9 *25:11 4.5 
4 *25:11 *444:i_tex_in[1] 378.945 
*END

*D_NET *26 0.10184
*CONN
*P io_in[32] I
*I *444:i_tex_in[2] I *D top_ew_algofoogle
*CAP
1 io_in[32] 0.00273984
2 *444:i_tex_in[2] 0.0417198
3 *26:11 0.0444597
4 *444:i_tex_in[2] *444:i_gpout1_sel[3] 0.000226331
5 *444:i_tex_in[2] *444:i_test_wci 0.0121351
6 *25:9 *26:11 0.000559129
*RES
1 io_in[32] *26:11 32.355 
2 *26:11 *444:i_tex_in[2] 377.865 
*END

*D_NET *28 0.127988
*CONN
*P io_in[34] I
*I *444:i_tex_in[3] I *D top_ew_algofoogle
*CAP
1 io_in[34] 0.000751787
2 *444:i_tex_in[3] 0.0473796
3 *28:11 0.0473796
4 *28:9 0.0137761
5 *28:7 0.0145279
6 *444:i_tex_in[3] *444:i_vec_csb 0.000646394
7 *444:i_tex_in[3] *444:i_vec_sclk 0.000409336
8 *25:9 *28:9 0.00311755
*RES
1 io_in[34] *28:7 10.665 
2 *28:7 *28:9 116.19 
3 *28:9 *28:11 4.5 
4 *28:11 *444:i_tex_in[3] 379.125 
*END

*D_NET *29 0.114363
*CONN
*P io_in[35] I
*I *444:i_spare_1 I *D top_ew_algofoogle
*CAP
1 io_in[35] 0.00161935
2 *444:i_spare_1 0.00055967
3 *29:13 0.0454178
4 *29:11 0.0464775
5 *444:i_spare_1 *444:i_spare_0 0.000101848
6 *29:13 *51:9 0.0201865
7 *29:13 *134:9 0
*RES
1 io_in[35] *29:11 21.555 
2 *29:11 *29:13 381.33 
3 *29:13 *444:i_spare_1 8.685 
*END

*D_NET *41 0.198932
*CONN
*P io_oeb[11] O
*I *444:ones[0] O *D top_ew_algofoogle
*CAP
1 io_oeb[11] 0.0676964
2 *444:ones[0] 0.0317697
3 *41:7 0.0676964
4 *41:5 0.0317697
*RES
1 *444:ones[0] *41:5 244.548 
2 *41:5 *41:7 4.5 
3 *41:7 io_oeb[11] 542.385 
*END

*D_NET *42 0.253687
*CONN
*P io_oeb[12] O
*I *444:zeros[4] O *D top_ew_algofoogle
*CAP
1 io_oeb[12] 0.0178895
2 *444:zeros[4] 0.000691682
3 *42:15 0.0178895
4 *42:13 0.0816384
5 *42:11 0.0816384
6 *42:9 0.0266238
7 *42:7 0.0273155
8 *42:9 *144:9 0
*RES
1 *444:zeros[4] *42:7 8.685 
2 *42:7 *42:9 212.31 
3 *42:9 *42:11 4.5 
4 *42:11 *42:13 629.73 
5 *42:13 *42:15 4.5 
6 *42:15 io_oeb[12] 143.325 
*END

*D_NET *43 0.185856
*CONN
*P io_oeb[13] O
*I *444:zeros[5] O *D top_ew_algofoogle
*CAP
1 io_oeb[13] 0.0446297
2 *444:zeros[5] 0.0482984
3 *43:7 0.0446297
4 *43:5 0.0482984
*RES
1 *444:zeros[5] *43:5 371.988 
2 *43:5 *43:7 4.5 
3 *43:7 io_oeb[13] 356.625 
*END

*D_NET *44 0.189891
*CONN
*P io_oeb[14] O
*I *444:zeros[6] O *D top_ew_algofoogle
*CAP
1 io_oeb[14] 0.0200872
2 *444:zeros[6] 0.000853332
3 *44:11 0.0200872
4 *44:9 0.055265
5 *44:7 0.0561183
6 io_oeb[14] *83:13 0.0374804
*RES
1 *444:zeros[6] *44:7 10.665 
2 *44:7 *44:9 449.73 
3 *44:9 *44:11 4.5 
4 *44:11 io_oeb[14] 254.025 
*END

*D_NET *45 0.184839
*CONN
*P io_oeb[15] O
*I *444:zeros[7] O *D top_ew_algofoogle
*CAP
1 io_oeb[15] 0.00107539
2 *444:zeros[7] 0.0569859
3 *45:9 0.0272965
4 *45:7 0.0262211
5 *45:5 0.0569859
6 *45:9 *47:15 0.0162747
*RES
1 *444:zeros[7] *45:5 438.768 
2 *45:5 *45:7 4.5 
3 *45:7 *45:9 229.23 
4 *45:9 io_oeb[15] 12.825 
*END

*D_NET *46 0.274164
*CONN
*P io_oeb[16] O
*I *444:o_tex_oeb0 O *D top_ew_algofoogle
*CAP
1 io_oeb[16] 0.0586075
2 *444:o_tex_oeb0 0.000164571
3 *46:15 0.0586075
4 *46:13 0.0471728
5 *46:11 0.0471728
6 *46:9 0.00782249
7 *46:7 0.00798706
8 *46:7 *444:i_gpout4_sel[5] 9.10378e-06
9 *46:9 *444:i_test_uc2 0
10 *46:9 *85:9 0.0460933
11 *46:9 *144:13 0.000422906
12 *46:9 *307:13 0.000104268
*RES
1 *444:o_tex_oeb0 *46:7 5.265 
2 *46:7 *46:9 117.99 
3 *46:9 *46:11 4.5 
4 *46:11 *46:13 377.37 
5 *46:13 *46:15 4.5 
6 *46:15 io_oeb[16] 451.125 
*END

*D_NET *47 0.139763
*CONN
*P io_oeb[17] O
*I *444:zeros[0] O *D top_ew_algofoogle
*CAP
1 io_oeb[17] 0.0010524
2 *444:zeros[0] 5.6573e-05
3 *47:15 0.00358016
4 *47:9 0.0606352
5 *47:7 0.058164
6 *45:9 *47:15 0.0162747
*RES
1 *444:zeros[0] *47:7 4.905 
2 *47:7 *47:9 447.21 
3 *47:9 *47:15 49.41 
4 *47:15 io_oeb[17] 8.145 
*END

*D_NET *48 0.155889
*CONN
*P io_oeb[18] O
*I *444:zeros[1] O *D top_ew_algofoogle
*CAP
1 io_oeb[18] 0.0574588
2 *444:zeros[1] 0.000602429
3 *48:11 0.0574588
4 *48:9 0.00487557
5 *48:7 0.005478
6 *48:9 *49:9 0.0300149
*RES
1 *444:zeros[1] *48:7 8.74768 
2 *48:7 *48:9 74.97 
3 *48:9 *48:11 4.5 
4 *48:11 io_oeb[18] 442.845 
*END

*D_NET *49 0.194242
*CONN
*P io_oeb[19] O
*I *444:zeros[2] O *D top_ew_algofoogle
*CAP
1 io_oeb[19] 0.0574978
2 *444:zeros[2] 0.000563477
3 *49:11 0.0574978
4 *49:9 0.0169342
5 *49:7 0.0174977
6 *49:9 *444:i_mode[2] 0
7 *49:9 *87:13 0.0142362
8 *48:9 *49:9 0.0300149
*RES
1 *444:zeros[2] *49:7 8.56768 
2 *49:7 *49:9 189.99 
3 *49:9 *49:11 4.5 
4 *49:11 io_oeb[19] 443.025 
*END

*D_NET *51 0.25061
*CONN
*P io_oeb[20] O
*I *444:zeros[3] O *D top_ew_algofoogle
*CAP
1 io_oeb[20] 0.0995785
2 *444:zeros[3] 0.000617277
3 *51:11 0.0995785
4 *51:9 0.0101071
5 *51:7 0.0107243
6 *51:9 *444:i_la_invalid 0.00225586
7 *51:9 *130:9 0.00756229
8 *51:9 *134:9 0
9 *29:13 *51:9 0.0201865
*RES
1 *444:zeros[3] *51:7 8.865 
2 *51:7 *51:9 133.29 
3 *51:9 *51:11 4.5 
4 *51:11 io_oeb[20] 768.645 
*END

*D_NET *79 0.455314
*CONN
*P io_out[11] O
*I *444:zeros[8] O *D top_ew_algofoogle
*CAP
1 io_out[11] 0.0721448
2 *444:zeros[8] 0.000964246
3 *79:11 0.0721448
4 *79:9 0.0321561
5 *79:7 0.0331203
6 *79:9 *80:9 0.0675855
7 *79:9 *82:9 0.154331
8 *79:9 *116:13 0.00486571
9 *79:9 *118:13 0.00490823
10 *79:9 *121:13 0.00513492
11 *79:9 *131:13 0.00758662
12 *8:13 *79:9 0.000372594
*RES
1 *444:zeros[8] *79:7 9.945 
2 *79:7 *79:9 523.53 
3 *79:9 *79:11 4.5 
4 *79:11 io_out[11] 576.945 
*END

*D_NET *80 0.390079
*CONN
*P io_out[12] O
*I *444:o_hsync O *D top_ew_algofoogle
*CAP
1 io_out[12] 0.00131687
2 *444:o_hsync 0.000875804
3 *80:17 0.0180146
4 *80:15 0.0166977
5 *80:13 0.0711288
6 *80:11 0.0711288
7 *80:9 0.0124963
8 *80:7 0.0133721
9 *80:7 *444:i_gpout5_sel[2] 0.000123165
10 *80:7 *444:i_gpout5_sel[4] 0.000121757
11 *80:9 *121:13 0.00103636
12 *80:17 *81:14 0.107758
13 *8:13 *80:9 0.00842294
14 *79:9 *80:9 0.0675855
*RES
1 *444:o_hsync *80:7 10.125 
2 *80:7 *80:9 168.21 
3 *80:9 *80:11 4.5 
4 *80:11 *80:13 569.07 
5 *80:13 *80:15 4.5 
6 *80:15 *80:17 266.85 
7 *80:17 io_out[12] 12.645 
*END

*D_NET *81 0.368057
*CONN
*P io_out[13] O
*I *444:o_vsync O *D top_ew_algofoogle
*CAP
1 io_out[13] 0.00111227
2 *444:o_vsync 0
3 *81:14 0.0272989
4 *81:12 0.0261866
5 *81:10 0.0703362
6 *81:8 0.0703362
7 *81:6 0.0237199
8 *81:4 0.0237199
9 *81:6 *83:9 0.0043803
10 *81:6 *84:11 0.00318177
11 *81:6 *85:9 0.00295418
12 *81:6 *86:9 0.00405645
13 *81:6 *87:9 0.00287825
14 *81:6 *145:13 0.0001382
15 *80:17 *81:14 0.107758
*RES
1 *444:o_vsync *81:4 4.5 
2 *81:4 *81:6 157.95 
3 *81:6 *81:8 4.5 
4 *81:8 *81:10 563.31 
5 *81:10 *81:12 4.5 
6 *81:12 *81:14 344.07 
7 *81:14 io_out[13] 12.825 
*END

*D_NET *82 0.398608
*CONN
*P io_out[14] O
*I *444:o_tex_csb O *D top_ew_algofoogle
*CAP
1 io_out[14] 0.072021
2 *444:o_tex_csb 0.00078262
3 *82:11 0.072021
4 *82:9 0.0485376
5 *82:7 0.0493203
6 *82:7 *444:i_debug_trace_overlay 7.88021e-05
7 *82:7 *159:11 7.75026e-05
8 *82:9 *118:13 0.00131974
9 *444:i_tex_in[0] *82:7 0.000119186
10 *79:9 *82:9 0.154331
*RES
1 *444:o_tex_csb *82:7 9.765 
2 *82:7 *82:9 574.29 
3 *82:9 *82:11 4.5 
4 *82:11 io_out[14] 576.765 
*END

*D_NET *83 0.358439
*CONN
*P io_out[15] O
*I *444:o_tex_sclk O *D top_ew_algofoogle
*CAP
1 io_out[15] 0.00179748
2 *444:o_tex_sclk 0.000136935
3 *83:13 0.054879
4 *83:11 0.0530816
5 *83:9 0.0410645
6 *83:7 0.0412015
7 *83:9 *84:11 0.0757493
8 *83:9 *86:9 0.0486676
9 io_oeb[14] *83:13 0.0374804
10 *81:6 *83:9 0.0043803
*RES
1 *444:o_tex_sclk *83:7 5.445 
2 *83:7 *83:9 559.35 
3 *83:9 *83:11 4.5 
4 *83:11 *83:13 518.31 
5 *83:13 io_out[15] 15.525 
*END

*D_NET *84 0.350054
*CONN
*P io_out[16] O
*I *444:o_tex_out0 O *D top_ew_algofoogle
*CAP
1 io_out[16] 0.00253001
2 *444:o_tex_out0 0.00020022
3 *84:15 0.0539316
4 *84:13 0.0514016
5 *84:11 0.0318771
6 *84:9 0.0320774
7 *84:11 *85:9 0.000177291
8 *84:11 *86:9 0.0490937
9 *84:11 *87:9 0.0434671
10 *84:11 *145:13 0.00636703
11 *81:6 *84:11 0.00318177
12 *83:9 *84:11 0.0757493
*RES
1 *444:o_tex_out0 *84:9 5.715 
2 *84:9 *84:11 552.33 
3 *84:11 *84:13 4.5 
4 *84:13 *84:15 412.29 
5 *84:15 io_out[16] 23.625 
*END

*D_NET *85 0.382596
*CONN
*P io_out[17] O
*I *444:o_gpout[0] O *D top_ew_algofoogle
*CAP
1 io_out[17] 0.0578516
2 *444:o_gpout[0] 9.5592e-05
3 *85:15 0.0578516
4 *85:13 0.0197673
5 *85:11 0.0197673
6 *85:9 0.00106653
7 *85:7 0.00116213
8 *85:7 *444:i_gpout0_sel[5] 1.40387e-05
9 *85:9 *87:9 0.0424205
10 *85:9 *145:13 0.0104805
11 *85:9 *307:13 0.00145634
12 *85:13 *444:i_mode[2] 0
13 *85:13 *86:13 0.0800507
14 *85:13 *158:9 0.0413872
15 *46:9 *85:9 0.0460933
16 *81:6 *85:9 0.00295418
17 *84:11 *85:9 0.000177291
*RES
1 *444:o_gpout[0] *85:7 5.085 
2 *85:7 *85:9 136.53 
3 *85:9 *85:11 4.5 
4 *85:11 *85:13 306.27 
5 *85:13 *85:15 4.5 
6 *85:15 io_out[17] 445.545 
*END

*D_NET *86 0.327105
*CONN
*P io_out[18] O
*I *444:o_gpout[1] O *D top_ew_algofoogle
*CAP
1 io_out[18] 0.0578905
2 *444:o_gpout[1] 0.000107606
3 *86:15 0.0578905
4 *86:13 0.0126866
5 *86:11 0.0126866
6 *86:9 0.00118547
7 *86:7 0.00129308
8 *86:9 *145:13 0.00149662
9 *81:6 *86:9 0.00405645
10 *83:9 *86:9 0.0486676
11 *84:11 *86:9 0.0490937
12 *85:13 *86:13 0.0800507
*RES
1 *444:o_gpout[1] *86:7 5.265 
2 *86:7 *86:9 134.55 
3 *86:9 *86:11 4.5 
4 *86:11 *86:13 199.35 
5 *86:13 *86:15 4.5 
6 *86:15 io_out[18] 445.725 
*END

*D_NET *87 0.238076
*CONN
*P io_out[19] O
*I *444:o_gpout[2] O *D top_ew_algofoogle
*CAP
1 io_out[19] 0.0574588
2 *444:o_gpout[2] 8.7229e-05
3 *87:15 0.0574588
4 *87:13 0.00956058
5 *87:11 0.00956058
6 *87:9 0.000425815
7 *87:7 0.000513044
8 *87:7 *444:i_gpout3_sel[3] 4.38074e-06
9 *87:7 *444:i_gpout4_sel[2] 4.38074e-06
10 *49:9 *87:13 0.0142362
11 *81:6 *87:9 0.00287825
12 *84:11 *87:9 0.0434671
13 *85:9 *87:9 0.0424205
*RES
1 *444:o_gpout[2] *87:7 4.905 
2 *87:7 *87:9 111.15 
3 *87:9 *87:11 4.5 
4 *87:11 *87:13 93.33 
5 *87:13 *87:15 4.5 
6 *87:15 io_out[19] 442.845 
*END

*D_NET *89 0.149622
*CONN
*P io_out[20] O
*I *444:o_gpout[3] O *D top_ew_algofoogle
*CAP
1 io_out[20] 0.0726956
2 *444:o_gpout[3] 0.00206033
3 *89:7 0.0747559
4 *89:7 *444:i_gpout3_sel[4] 8.0318e-05
5 *89:7 *444:i_gpout4_sel[1] 2.99971e-05
*RES
1 *444:o_gpout[3] *89:7 18.045 
2 *89:7 io_out[20] 561.465 
*END

*D_NET *115 0.10693
*CONN
*P la_data_in[0] I
*I *444:i_reset_lock_a I *D top_ew_algofoogle
*CAP
1 la_data_in[0] 0.0473163
2 *444:i_reset_lock_a 0.00581249
3 *115:5 0.0531288
4 *444:i_reset_lock_a *444:i_gpout5_sel[1] 0.00033293
5 *444:i_reset_lock_a *444:i_gpout5_sel[3] 0.00033911
*RES
1 la_data_in[0] *115:5 365.085 
2 *115:5 *444:i_reset_lock_a 47.745 
*END

*D_NET *116 0.197982
*CONN
*P la_data_in[10] I
*I *444:i_gpout0_sel[5] I *D top_ew_algofoogle
*CAP
1 la_data_in[10] 0.0256067
2 *444:i_gpout0_sel[5] 0.000984191
3 *116:13 0.00267165
4 *116:11 0.00168746
5 *116:9 0.00367356
6 *116:7 0.00367356
7 *116:5 0.0256067
8 *444:i_gpout0_sel[5] *444:i_gpout0_sel[3] 3.67941e-05
9 *116:9 *121:9 0.021622
10 *116:9 *123:9 3.42509e-05
11 *116:9 *160:9 0
12 *116:13 *117:13 0.000254879
13 *116:13 *121:13 0.0708157
14 *116:13 *150:13 0.0276053
15 *8:13 *116:13 0.00882948
16 *79:9 *116:13 0.00486571
17 *85:7 *444:i_gpout0_sel[5] 1.40387e-05
*RES
1 la_data_in[10] *116:5 193.365 
2 *116:5 *116:7 4.5 
3 *116:7 *116:9 54.45 
4 *116:9 *116:11 4.5 
5 *116:11 *116:13 180.45 
6 *116:13 *444:i_gpout0_sel[5] 10.305 
*END

*D_NET *117 0.213896
*CONN
*P la_data_in[11] I
*I *444:i_debug_vec_overlay I *D top_ew_algofoogle
*CAP
1 la_data_in[11] 0.0243267
2 *444:i_debug_vec_overlay 0.00114279
3 *117:13 0.00198766
4 *117:11 0.000844867
5 *117:9 0.00410049
6 *117:7 0.00410049
7 *117:5 0.0243267
8 *444:i_debug_vec_overlay *444:i_gpout5_sel[0] 0.000128657
9 *117:9 *444:i_spare_0 0.000247498
10 *117:9 *129:9 0.0256691
11 *117:13 *121:13 1.51153e-05
12 *117:13 *124:13 0
13 *117:13 *131:13 0.00047058
14 *117:13 *150:13 0.0615755
15 *117:13 *159:5 0.0645277
16 *8:13 *117:13 0.000177693
17 *116:13 *117:13 0.000254879
*RES
1 la_data_in[11] *117:5 184.905 
2 *117:5 *117:7 4.5 
3 *117:7 *117:9 64.17 
4 *117:9 *117:11 4.5 
5 *117:11 *117:13 168.39 
6 *117:13 *444:i_debug_vec_overlay 10.845 
*END

*D_NET *118 0.216237
*CONN
*P la_data_in[12] I
*I *444:i_reg_csb I *D top_ew_algofoogle
*CAP
1 la_data_in[12] 0.0016334
2 *444:i_reg_csb 0.000634434
3 *118:13 0.0382955
4 *118:11 0.0376611
5 *118:9 0.00462373
6 *118:7 0.00625714
7 *444:i_reg_csb *444:i_reg_sclk 0.000158293
8 *444:i_reg_csb *444:i_test_uc2 6.70539e-05
9 *118:9 *124:9 0.0290104
10 *118:13 *131:13 0.089095
11 *118:13 *143:13 0
12 *118:13 *159:5 0
13 *118:13 *159:13 0.00182714
14 *8:13 *118:13 0.000745605
15 *79:9 *118:13 0.00490823
16 *82:9 *118:13 0.00131974
*RES
1 la_data_in[12] *118:7 16.425 
2 *118:7 *118:9 72.27 
3 *118:9 *118:11 4.5 
4 *118:11 *118:13 407.25 
5 *118:13 *444:i_reg_csb 9.765 
*END

*D_NET *119 0.33165
*CONN
*P la_data_in[13] I
*I *444:i_reg_sclk I *D top_ew_algofoogle
*CAP
1 la_data_in[13] 0.00371588
2 *444:i_reg_sclk 0.00114777
3 *119:13 0.00243436
4 *119:11 0.00128659
5 *119:9 0.0107642
6 *119:7 0.0144801
7 *444:i_reg_sclk *444:i_reg_mosi 0.000146879
8 *119:13 *120:13 0.00642403
9 *119:13 *124:13 0.151449
10 *119:13 *136:13 0.139644
11 *444:i_reg_csb *444:i_reg_sclk 0.000158293
*RES
1 la_data_in[13] *119:7 32.265 
2 *119:7 *119:9 84.33 
3 *119:9 *119:11 4.5 
4 *119:11 *119:13 392.49 
5 *119:13 *444:i_reg_sclk 12.645 
*END

*D_NET *120 0.278257
*CONN
*P la_data_in[14] I
*I *444:i_reg_mosi I *D top_ew_algofoogle
*CAP
1 la_data_in[14] 0.023895
2 *444:i_reg_mosi 0.00127849
3 *120:13 0.00237309
4 *120:11 0.0010946
5 *120:9 0.00643762
6 *120:7 0.00643762
7 *120:5 0.023895
8 *444:i_reg_mosi *444:i_gpout1_sel[5] 0.000154315
9 *120:9 *131:9 0.0362873
10 *120:13 *122:13 0.00119045
11 *120:13 *125:13 0.0896178
12 *120:13 *136:13 0.0790247
13 *444:i_reg_sclk *444:i_reg_mosi 0.000146879
14 *119:13 *120:13 0.00642403
*RES
1 la_data_in[14] *120:5 182.025 
2 *120:5 *120:7 4.5 
3 *120:7 *120:9 93.87 
4 *120:9 *120:11 4.5 
5 *120:11 *120:13 239.31 
6 *120:13 *444:i_reg_mosi 13.005 
*END

*D_NET *121 0.289584
*CONN
*P la_data_in[15] I
*I *444:i_gpout1_sel[0] I *D top_ew_algofoogle
*CAP
1 la_data_in[15] 0.0255198
2 *444:i_gpout1_sel[0] 0.000760435
3 *121:13 0.00144718
4 *121:11 0.000686749
5 *121:9 0.00317357
6 *121:7 0.00317357
7 *121:5 0.0255198
8 *444:i_gpout1_sel[0] *444:i_gpout2_sel[3] 0.00015116
9 *444:i_gpout1_sel[0] *444:i_gpout2_sel[5] 8.17711e-05
10 *121:9 *123:9 0.040054
11 *121:13 *131:13 0.0843525
12 *8:13 *121:13 0.00603912