*SPEF "ieee 1481-1999"
*DESIGN "top_vga_spi_rom"
*DATE "11:11:11 Fri 11 11, 1111"
*VENDOR "OpenRCX"
*PROGRAM "Parallel Extraction"
*VERSION "1.0"
*DESIGN_FLOW "NAME_SCOPE LOCAL" "PIN_CAP NONE"
*DIVIDER /
*DELIMITER :
*BUS_DELIMITER []
*T_UNIT 1 NS
*C_UNIT 1 PF
*R_UNIT 1 OHM
*L_UNIT 1 HENRY

*NAME_MAP
*1 clk
*2 rst
*3 ui_in[0]
*4 ui_in[1]
*5 ui_in[2]
*6 ui_in[3]
*7 ui_in[4]
*8 ui_in[5]
*9 ui_in[6]
*10 ui_in[7]
*11 uio_in[0]
*12 uio_in[1]
*13 uio_in[2]
*14 uio_in[3]
*15 uio_in[4]
*16 uio_in[5]
*17 uio_in[6]
*18 uio_in[7]
*19 net32
*20 uio_oe[1]
*21 net26
*22 net33
*23 net34
*24 uio_oe[5]
*25 net27
*26 net28
*27 uio_out[0]
*28 uio_out[1]
*29 net29
*30 uio_out[3]
*31 uio_out[4]
*32 net35
*33 net30
*34 net31
*35 uo_out[0]
*36 uo_out[1]
*37 uo_out[2]
*38 uo_out[3]
*39 uo_out[4]
*40 uo_out[5]
*41 uo_out[6]
*42 uo_out[7]
*45 _0000_
*46 _0001_
*47 _0002_
*48 _0003_
*49 _0004_
*50 _0005_
*51 _0006_
*52 _0007_
*53 _0008_
*54 _0009_
*55 _0010_
*56 _0011_
*57 _0012_
*58 _0013_
*59 _0014_
*60 _0015_
*61 _0016_
*62 _0017_
*63 _0018_
*64 _0019_
*65 _0020_
*66 _0021_
*67 _0022_
*68 _0023_
*69 _0024_
*70 _0025_
*71 _0026_
*72 _0027_
*73 _0028_
*74 _0029_
*75 _0030_
*76 _0031_
*77 _0032_
*78 _0033_
*79 _0034_
*80 _0035_
*81 _0036_
*82 _0037_
*83 _0038_
*84 _0039_
*85 _0040_
*86 _0041_
*87 _0042_
*88 _0043_
*89 _0044_
*90 _0045_
*91 _0046_
*92 _0047_
*93 _0048_
*94 _0049_
*95 _0050_
*96 _0051_
*97 _0052_
*98 _0053_
*99 _0054_
*100 _0055_
*101 _0056_
*102 _0057_
*103 _0058_
*104 _0059_
*105 _0060_
*106 _0061_
*107 _0062_
*108 _0063_
*109 _0064_
*110 _0065_
*111 _0066_
*112 _0067_
*113 _0068_
*114 _0069_
*115 _0070_
*116 _0071_
*117 _0072_
*118 _0073_
*119 _0074_
*120 _0075_
*121 _0076_
*122 _0077_
*123 _0078_
*124 _0079_
*125 _0080_
*126 _0081_
*127 _0082_
*128 _0083_
*129 _0084_
*130 _0085_
*131 _0086_
*132 _0087_
*133 _0088_
*134 _0089_
*135 _0090_
*136 _0091_
*137 _0092_
*138 _0093_
*139 _0094_
*140 _0095_
*141 _0096_
*142 _0097_
*143 _0098_
*144 _0099_
*145 _0100_
*146 _0101_
*147 _0102_
*148 _0103_
*149 _0104_
*150 _0105_
*151 _0106_
*152 _0107_
*153 _0108_
*154 _0109_
*155 _0110_
*156 _0111_
*157 _0112_
*158 _0113_
*159 _0114_
*160 _0115_
*161 _0116_
*162 _0117_
*163 _0118_
*164 _0119_
*165 _0120_
*166 _0121_
*167 _0122_
*168 _0123_
*169 _0124_
*170 _0125_
*171 _0126_
*172 _0127_
*173 _0128_
*174 _0129_
*175 _0130_
*176 _0131_
*177 _0132_
*178 _0133_
*179 _0134_
*180 _0135_
*181 _0136_
*182 _0137_
*183 _0138_
*184 _0139_
*185 _0140_
*186 _0141_
*187 _0142_
*188 _0143_
*189 _0144_
*190 _0145_
*191 _0146_
*192 _0147_
*193 _0148_
*194 _0149_
*195 _0150_
*196 _0151_
*197 _0152_
*198 _0153_
*199 _0154_
*200 _0155_
*201 _0156_
*202 _0157_
*203 _0158_
*204 _0159_
*205 _0160_
*206 _0161_
*207 _0162_
*208 _0163_
*209 _0164_
*210 _0165_
*211 _0166_
*212 _0167_
*213 _0168_
*214 _0169_
*215 _0170_
*216 _0171_
*217 _0172_
*218 _0173_
*219 _0174_
*220 _0175_
*221 _0176_
*222 _0177_
*223 _0178_
*224 _0179_
*225 _0180_
*226 _0181_
*227 _0182_
*228 _0183_
*229 _0184_
*230 _0185_
*231 _0186_
*232 _0187_
*233 _0188_
*234 _0189_
*235 _0190_
*236 _0191_
*237 _0192_
*238 _0193_
*239 _0194_
*240 _0195_
*241 _0196_
*242 _0197_
*243 _0198_
*244 _0199_
*245 _0200_
*246 _0201_
*247 _0202_
*248 _0203_
*249 _0204_
*250 _0205_
*251 _0206_
*252 _0207_
*253 _0208_
*254 _0209_
*255 _0210_
*256 _0211_
*257 _0212_
*258 _0213_
*259 _0214_
*260 _0215_
*261 _0216_
*262 _0217_
*263 _0218_
*264 _0219_
*265 _0220_
*266 _0221_
*267 _0222_
*268 _0223_
*269 _0224_
*270 _0225_
*271 _0226_
*272 _0227_
*273 _0228_
*274 _0229_
*275 _0230_
*276 _0231_
*277 _0232_
*278 _0233_
*279 _0234_
*280 _0235_
*281 _0236_
*282 _0237_
*283 _0238_
*284 _0239_
*285 _0240_
*286 _0241_
*287 _0242_
*288 _0243_
*289 _0244_
*290 _0245_
*291 _0246_
*292 _0247_
*293 _0248_
*294 _0249_
*295 _0250_
*296 _0251_
*297 _0252_
*298 _0253_
*299 _0254_
*300 _0255_
*301 _0256_
*302 _0257_
*303 _0258_
*304 _0259_
*305 _0260_
*306 _0261_
*307 _0262_
*308 _0263_
*309 _0264_
*310 _0265_
*311 _0266_
*312 _0267_
*313 _0268_
*314 _0269_
*315 _0270_
*316 _0271_
*317 _0272_
*318 _0273_
*319 _0274_
*320 _0275_
*321 _0276_
*322 _0277_
*323 _0278_
*324 _0279_
*325 _0280_
*326 _0281_
*327 _0282_
*328 _0283_
*329 _0284_
*330 _0285_
*331 _0286_
*332 _0287_
*333 _0288_
*334 _0289_
*335 _0290_
*336 _0291_
*337 _0292_
*338 _0293_
*339 _0294_
*340 _0295_
*341 _0296_
*342 _0297_
*343 _0298_
*344 _0299_
*345 _0300_
*346 _0301_
*347 _0302_
*348 _0303_
*349 _0304_
*350 _0305_
*351 _0306_
*352 _0307_
*353 _0308_
*354 _0309_
*355 _0310_
*356 _0311_
*357 _0312_
*358 _0313_
*359 _0314_
*360 _0315_
*361 _0316_
*362 _0317_
*363 _0318_
*364 _0319_
*365 _0320_
*366 _0321_
*367 _0322_
*368 _0323_
*369 _0324_
*370 _0325_
*371 _0326_
*372 _0327_
*373 _0328_
*374 _0329_
*375 _0330_
*376 _0331_
*377 _0332_
*378 _0333_
*379 _0334_
*380 _0335_
*381 _0336_
*382 _0337_
*383 _0338_
*384 _0339_
*385 _0340_
*386 _0341_
*387 _0342_
*388 _0343_
*389 _0344_
*390 _0345_
*391 _0346_
*392 _0347_
*393 _0348_
*394 _0349_
*395 _0350_
*396 _0351_
*397 _0352_
*398 _0353_
*399 _0354_
*400 _0355_
*401 _0356_
*402 _0357_
*403 _0358_
*404 _0359_
*405 _0360_
*406 _0361_
*407 _0362_
*408 _0363_
*409 _0364_
*410 _0365_
*411 _0366_
*412 _0367_
*413 _0368_
*414 _0369_
*415 _0370_
*416 _0371_
*417 _0372_
*418 _0373_
*419 _0374_
*420 _0375_
*421 _0376_
*422 _0377_
*423 _0378_
*424 _0379_
*425 _0380_
*426 _0381_
*427 _0382_
*428 _0383_
*429 _0384_
*430 _0385_
*431 _0386_
*432 _0387_
*433 _0388_
*434 _0389_
*435 _0390_
*436 _0391_
*437 _0392_
*438 _0393_
*439 _0394_
*440 _0395_
*441 _0396_
*442 _0397_
*443 _0398_
*444 _0399_
*445 _0400_
*446 _0401_
*447 _0402_
*448 _0403_
*449 _0404_
*450 _0405_
*451 _0406_
*452 _0407_
*453 _0408_
*454 _0409_
*455 _0410_
*456 _0411_
*457 _0412_
*458 _0413_
*459 _0414_
*460 _0415_
*461 _0416_
*462 _0417_
*463 _0418_
*464 _0419_
*465 _0420_
*466 _0421_
*467 _0422_
*468 _0423_
*469 _0424_
*470 _0425_
*471 _0426_
*472 _0427_
*473 _0428_
*474 _0429_
*475 _0430_
*476 _0431_
*477 _0432_
*478 _0433_
*479 _0434_
*480 _0435_
*481 _0436_
*482 _0437_
*483 _0438_
*484 _0439_
*485 _0440_
*486 _0441_
*487 _0442_
*488 _0443_
*489 _0444_
*490 _0445_
*491 _0446_
*492 _0447_
*493 _0448_
*494 _0449_
*495 _0450_
*496 _0451_
*497 _0452_
*498 _0453_
*499 _0454_
*500 _0455_
*501 _0456_
*502 _0457_
*503 _0458_
*504 _0459_
*505 _0460_
*506 _0461_
*507 _0462_
*508 _0463_
*509 _0464_
*510 _0465_
*511 _0466_
*512 _0467_
*513 _0468_
*514 _0469_
*515 _0470_
*516 _0471_
*517 _0472_
*518 _0473_
*519 _0474_
*520 _0475_
*521 _0476_
*522 _0477_
*523 _0478_
*524 _0479_
*525 _0480_
*526 _0481_
*527 _0482_
*528 _0483_
*529 _0484_
*530 _0485_
*531 _0486_
*532 _0487_
*533 _0488_
*534 _0489_
*535 _0490_
*536 _0491_
*537 _0492_
*538 _0493_
*539 _0494_
*540 _0495_
*541 _0496_
*542 _0497_
*543 _0498_
*544 _0499_
*545 _0500_
*546 _0501_
*547 _0502_
*548 _0503_
*549 _0504_
*550 _0505_
*551 _0506_
*552 _0507_
*553 _0508_
*554 _0509_
*555 _0510_
*556 _0511_
*557 _0512_
*558 _0513_
*559 _0514_
*560 _0515_
*561 _0516_
*562 _0517_
*563 _0518_
*564 _0519_
*565 _0520_
*566 _0521_
*567 _0522_
*568 _0523_
*569 _0524_
*570 _0525_
*571 _0526_
*572 _0527_
*573 _0528_
*574 _0529_
*575 _0530_
*576 _0531_
*577 _0532_
*578 _0533_
*579 _0534_
*580 _0535_
*581 _0536_
*582 _0537_
*583 _0538_
*584 _0539_
*585 _0540_
*586 _0541_
*587 _0542_
*588 _0543_
*589 _0544_
*590 _0545_
*591 _0546_
*592 _0547_
*593 _0548_
*594 _0549_
*595 _0550_
*596 _0551_
*597 _0552_
*598 _0553_
*599 _0554_
*600 _0555_
*601 _0556_
*602 _0557_
*603 _0558_
*604 _0559_
*605 _0560_
*606 _0561_
*607 _0562_
*608 _0563_
*609 _0564_
*610 _0565_
*611 _0566_
*612 _0567_
*613 _0568_
*614 _0569_
*615 _0570_
*616 _0571_
*617 _0572_
*618 _0573_
*619 _0574_
*620 _0575_
*621 _0576_
*622 _0577_
*623 _0578_
*624 _0579_
*625 _0580_
*626 _0581_
*627 _0582_
*628 _0583_
*629 _0584_
*630 _0585_
*631 _0586_
*632 _0587_
*633 _0588_
*634 _0589_
*635 _0590_
*636 _0591_
*637 _0592_
*638 _0593_
*639 _0594_
*640 _0595_
*641 _0596_
*642 _0597_
*643 _0598_
*644 _0599_
*645 _0600_
*646 _0601_
*647 _0602_
*648 _0603_
*649 _0604_
*650 _0605_
*651 _0606_
*652 _0607_
*653 _0608_
*654 _0609_
*655 _0610_
*656 _0611_
*657 _0612_
*658 _0613_
*659 _0614_
*660 _0615_
*661 _0616_
*662 _0617_
*663 _0618_
*664 _0619_
*665 _0620_
*666 _0621_
*667 _0622_
*668 _0623_
*669 _0624_
*670 _0625_
*671 _0626_
*672 _0627_
*673 _0628_
*674 _0629_
*675 _0630_
*676 _0631_
*677 _0632_
*678 _0633_
*679 _0634_
*680 _0635_
*681 _0636_
*682 _0637_
*683 _0638_
*684 _0639_
*685 _0640_
*686 _0641_
*687 _0642_
*688 _0643_
*689 _0644_
*690 _0645_
*691 _0646_
*692 _0647_
*693 _0648_
*694 _0649_
*695 _0650_
*696 _0651_
*697 _0652_
*698 _0653_
*699 _0654_
*700 _0655_
*701 _0656_
*702 _0657_
*703 _0658_
*704 _0659_
*705 _0660_
*706 _0661_
*707 _0662_
*708 _0663_
*709 _0664_
*710 _0665_
*711 _0666_
*712 _0667_
*713 _0668_
*714 _0669_
*715 _0670_
*716 _0671_
*717 _0672_
*718 _0673_
*719 _0674_
*720 _0675_
*721 _0676_
*722 _0677_
*723 _0678_
*724 _0679_
*725 _0680_
*726 _0681_
*727 _0682_
*728 _0683_
*729 _0684_
*730 _0685_
*731 _0686_
*732 _0687_
*733 _0688_
*734 _0689_
*735 _0690_
*736 _0691_
*737 _0692_
*738 _0693_
*739 _0694_
*740 _0695_
*741 _0696_
*742 _0697_
*743 _0698_
*744 _0699_
*745 _0700_
*746 _0701_
*747 _0702_
*748 _0703_
*749 _0704_
*750 _0705_
*751 _0706_
*752 _0707_
*753 _0708_
*754 _0709_
*755 _0710_
*756 _0711_
*757 _0712_
*758 _0713_
*759 _0714_
*760 _0715_
*761 _0716_
*762 _0717_
*763 _0718_
*764 _0719_
*765 _0720_
*766 _0721_
*767 _0722_
*768 _0723_
*769 _0724_
*770 _0725_
*771 _0726_
*772 _0727_
*773 _0728_
*774 _0729_
*775 _0730_
*776 _0731_
*777 _0732_
*778 _0733_
*779 _0734_
*780 _0735_
*781 _0736_
*782 _0737_
*783 _0738_
*784 _0739_
*785 _0740_
*786 _0741_
*787 _0742_
*788 _0743_
*789 _0744_
*790 _0745_
*791 _0746_
*792 _0747_
*793 _0748_
*794 _0749_
*795 _0750_
*796 _0751_
*797 _0752_
*798 _0753_
*799 _0754_
*800 _0755_
*801 _0756_
*802 _0757_
*803 _0758_
*804 _0759_
*805 _0760_
*806 _0761_
*807 _0762_
*808 _0763_
*809 _0764_
*810 _0765_
*811 _0766_
*812 _0767_
*813 _0768_
*814 _0769_
*815 _0770_
*816 _0771_
*817 _0772_
*818 _0773_
*819 _0774_
*820 _0775_
*821 _0776_
*822 _0777_
*823 _0778_
*824 _0779_
*825 _0780_
*826 _0781_
*827 _0782_
*828 _0783_
*829 _0784_
*830 _0785_
*831 _0786_
*832 _0787_
*833 _0788_
*834 _0789_
*835 _0790_
*836 _0791_
*837 _0792_
*838 _0793_
*839 _0794_
*840 _0795_
*841 _0796_
*842 _0797_
*843 _0798_
*844 _0799_
*845 _0800_
*846 _0801_
*847 _0802_
*848 _0803_
*849 _0804_
*850 _0805_
*851 _0806_
*852 _0807_
*853 _0808_
*854 _0809_
*855 _0810_
*856 _0811_
*857 _0812_
*858 _0813_
*859 _0814_
*860 _0815_
*861 _0816_
*862 _0817_
*863 _0818_
*864 _0819_
*865 _0820_
*866 _0821_
*867 _0822_
*868 _0823_
*869 _0824_
*870 _0825_
*871 _0826_
*872 _0827_
*873 _0828_
*874 _0829_
*875 _0830_
*876 _0831_
*877 _0832_
*878 _0833_
*879 _0834_
*880 _0835_
*881 _0836_
*882 _0837_
*883 _0838_
*884 _0839_
*885 _0840_
*886 _0841_
*887 _0842_
*888 _0843_
*889 _0844_
*890 _0845_
*891 _0846_
*892 _0847_
*893 _0848_
*894 _0849_
*895 _0850_
*896 _0851_
*897 _0852_
*898 _0853_
*899 _0854_
*900 _0855_
*901 _0856_
*902 _0857_
*903 _0858_
*904 _0859_
*905 _0860_
*906 _0861_
*907 _0862_
*908 _0863_
*909 _0864_
*910 _0865_
*911 _0866_
*912 _0867_
*913 _0868_
*914 _0869_
*915 _0870_
*916 _0871_
*917 _0872_
*918 _0873_
*919 _0874_
*920 _0875_
*921 _0876_
*922 _0877_
*923 _0878_
*924 _0879_
*925 _0880_
*926 _0881_
*927 _0882_
*928 _0883_
*929 _0884_
*930 _0885_
*931 _0886_
*932 _0887_
*933 _0888_
*934 _0889_
*935 _0890_
*936 _0891_
*937 _0892_
*938 _0893_
*939 _0894_
*940 _0895_
*941 _0896_
*942 _0897_
*943 _0898_
*944 _0899_
*945 _0900_
*946 _0901_
*947 _0902_
*948 _0903_
*949 _0904_
*950 _0905_
*951 _0906_
*952 _0907_
*953 _0908_
*954 _0909_
*955 _0910_
*956 _0911_
*957 _0912_
*958 _0913_
*959 _0914_
*960 _0915_
*961 _0916_
*962 _0917_
*963 _0918_
*964 _0919_
*965 _0920_
*966 _0921_
*967 _0922_
*968 _0923_
*969 _0924_
*970 _0925_
*971 _0926_
*972 _0927_
*973 _0928_
*974 _0929_
*975 _0930_
*976 _0931_
*977 _0932_
*978 _0933_
*979 _0934_
*980 clknet_0_clk
*981 clknet_4_0_0_clk
*982 clknet_4_10_0_clk
*983 clknet_4_11_0_clk
*984 clknet_4_12_0_clk
*985 clknet_4_13_0_clk
*986 clknet_4_14_0_clk
*987 clknet_4_15_0_clk
*988 clknet_4_1_0_clk
*989 clknet_4_2_0_clk
*990 clknet_4_3_0_clk
*991 clknet_4_4_0_clk
*992 clknet_4_5_0_clk
*993 clknet_4_6_0_clk
*994 clknet_4_7_0_clk
*995 clknet_4_8_0_clk
*996 clknet_4_9_0_clk
*997 net1
*998 net10
*999 net11
*1000 net12
*1001 net13
*1002 net14
*1003 net15
*1004 net16
*1005 net17
*1006 net18
*1007 net19
*1008 net2
*1009 net20
*1010 net21
*1011 net22
*1012 net23
*1013 net24
*1014 net25
*1015 net3
*1016 net36
*1017 net37
*1018 net38
*1019 net39
*1020 net4
*1021 net40
*1022 net41
*1023 net42
*1024 net43
*1025 net44
*1026 net45
*1027 net46
*1028 net47
*1029 net48
*1030 net49
*1031 net5
*1032 net50
*1033 net6
*1034 net7
*1035 net8
*1036 net9
*1037 tt_um_algofoogle_vga_spi_rom\.hsync
*1038 tt_um_algofoogle_vga_spi_rom\.r_hsync
*1039 tt_um_algofoogle_vga_spi_rom\.r_rgb\[0\]
*1040 tt_um_algofoogle_vga_spi_rom\.r_rgb\[1\]
*1041 tt_um_algofoogle_vga_spi_rom\.r_rgb\[2\]
*1042 tt_um_algofoogle_vga_spi_rom\.r_rgb\[3\]
*1043 tt_um_algofoogle_vga_spi_rom\.r_rgb\[4\]
*1044 tt_um_algofoogle_vga_spi_rom\.r_rgb\[5\]
*1045 tt_um_algofoogle_vga_spi_rom\.r_vsync
*1046 tt_um_algofoogle_vga_spi_rom\.vga_spi_rom\.data_buffer\[0\]
*1047 tt_um_algofoogle_vga_spi_rom\.vga_spi_rom\.data_buffer\[100\]
*1048 tt_um_algofoogle_vga_spi_rom\.vga_spi_rom\.data_buffer\[101\]
*1049 tt_um_algofoogle_vga_spi_rom\.vga_spi_rom\.data_buffer\[102\]
*1050 tt_um_algofoogle_vga_spi_rom\.vga_spi_rom\.data_buffer\[103\]
*1051 tt_um_algofoogle_vga_spi_rom\.vga_spi_rom\.data_buffer\[104\]
*1052 tt_um_algofoogle_vga_spi_rom\.vga_spi_rom\.data_buffer\[105\]
*1053 tt_um_algofoogle_vga_spi_rom\.vga_spi_rom\.data_buffer\[106\]
*1054 tt_um_algofoogle_vga_spi_rom\.vga_spi_rom\.data_buffer\[107\]
*1055 tt_um_algofoogle_vga_spi_rom\.vga_spi_rom\.data_buffer\[108\]
*1056 tt_um_algofoogle_vga_spi_rom\.vga_spi_rom\.data_buffer\[109\]
*1057 tt_um_algofoogle_vga_spi_rom\.vga_spi_rom\.data_buffer\[10\]
*1058 tt_um_algofoogle_vga_spi_rom\.vga_spi_rom\.data_buffer\[110\]
*1059 tt_um_algofoogle_vga_spi_rom\.vga_spi_rom\.data_buffer\[111\]
*1060 tt_um_algofoogle_vga_spi_rom\.vga_spi_rom\.data_buffer\[112\]
*1061 tt_um_algofoogle_vga_spi_rom\.vga_spi_rom\.data_buffer\[113\]
*1062 tt_um_algofoogle_vga_spi_rom\.vga_spi_rom\.data_buffer\[114\]
*1063 tt_um_algofoogle_vga_spi_rom\.vga_spi_rom\.data_buffer\[115\]
*1064 tt_um_algofoogle_vga_spi_rom\.vga_spi_rom\.data_buffer\[116\]
*1065 tt_um_algofoogle_vga_spi_rom\.vga_spi_rom\.data_buffer\[117\]
*1066 tt_um_algofoogle_vga_spi_rom\.vga_spi_rom\.data_buffer\[118\]
*1067 tt_um_algofoogle_vga_spi_rom\.vga_spi_rom\.data_buffer\[119\]
*1068 tt_um_algofoogle_vga_spi_rom\.vga_spi_rom\.data_buffer\[11\]
*1069 tt_um_algofoogle_vga_spi_rom\.vga_spi_rom\.data_buffer\[120\]
*1070 tt_um_algofoogle_vga_spi_rom\.vga_spi_rom\.data_buffer\[121\]
*1071 tt_um_algofoogle_vga_spi_rom\.vga_spi_rom\.data_buffer\[122\]
*1072 tt_um_algofoogle_vga_spi_rom\.vga_spi_rom\.data_buffer\[123\]
*1073 tt_um_algofoogle_vga_spi_rom\.vga_spi_rom\.data_buffer\[124\]
*1074 tt_um_algofoogle_vga_spi_rom\.vga_spi_rom\.data_buffer\[125\]
*1075 tt_um_algofoogle_vga_spi_rom\.vga_spi_rom\.data_buffer\[126\]
*1076 tt_um_algofoogle_vga_spi_rom\.vga_spi_rom\.data_buffer\[127\]
*1077 tt_um_algofoogle_vga_spi_rom\.vga_spi_rom\.data_buffer\[128\]
*1078 tt_um_algofoogle_vga_spi_rom\.vga_spi_rom\.data_buffer\[129\]
*1079 tt_um_algofoogle_vga_spi_rom\.vga_spi_rom\.data_buffer\[12\]
*1080 tt_um_algofoogle_vga_spi_rom\.vga_spi_rom\.data_buffer\[130\]
*1081 tt_um_algofoogle_vga_spi_rom\.vga_spi_rom\.data_buffer\[131\]
*1082 tt_um_algofoogle_vga_spi_rom\.vga_spi_rom\.data_buffer\[132\]
*1083 tt_um_algofoogle_vga_spi_rom\.vga_spi_rom\.data_buffer\[133\]
*1084 tt_um_algofoogle_vga_spi_rom\.vga_spi_rom\.data_buffer\[134\]
*1085 tt_um_algofoogle_vga_spi_rom\.vga_spi_rom\.data_buffer\[135\]
*1086 tt_um_algofoogle_vga_spi_rom\.vga_spi_rom\.data_buffer\[13\]
*1087 tt_um_algofoogle_vga_spi_rom\.vga_spi_rom\.data_buffer\[14\]
*1088 tt_um_algofoogle_vga_spi_rom\.vga_spi_rom\.data_buffer\[15\]
*1089 tt_um_algofoogle_vga_spi_rom\.vga_spi_rom\.data_buffer\[16\]
*1090 tt_um_algofoogle_vga_spi_rom\.vga_spi_rom\.data_buffer\[17\]
*1091 tt_um_algofoogle_vga_spi_rom\.vga_spi_rom\.data_buffer\[18\]
*1092 tt_um_algofoogle_vga_spi_rom\.vga_spi_rom\.data_buffer\[19\]
*1093 tt_um_algofoogle_vga_spi_rom\.vga_spi_rom\.data_buffer\[1\]
*1094 tt_um_algofoogle_vga_spi_rom\.vga_spi_rom\.data_buffer\[20\]
*1095 tt_um_algofoogle_vga_spi_rom\.vga_spi_rom\.data_buffer\[21\]
*1096 tt_um_algofoogle_vga_spi_rom\.vga_spi_rom\.data_buffer\[22\]
*1097 tt_um_algofoogle_vga_spi_rom\.vga_spi_rom\.data_buffer\[23\]
*1098 tt_um_algofoogle_vga_spi_rom\.vga_spi_rom\.data_buffer\[24\]
*1099 tt_um_algofoogle_vga_spi_rom\.vga_spi_rom\.data_buffer\[25\]
*1100 tt_um_algofoogle_vga_spi_rom\.vga_spi_rom\.data_buffer\[26\]
*1101 tt_um_algofoogle_vga_spi_rom\.vga_spi_rom\.data_buffer\[27\]
*1102 tt_um_algofoogle_vga_spi_rom\.vga_spi_rom\.data_buffer\[28\]
*1103 tt_um_algofoogle_vga_spi_rom\.vga_spi_rom\.data_buffer\[29\]
*1104 tt_um_algofoogle_vga_spi_rom\.vga_spi_rom\.data_buffer\[2\]
*1105 tt_um_algofoogle_vga_spi_rom\.vga_spi_rom\.data_buffer\[30\]
*1106 tt_um_algofoogle_vga_spi_rom\.vga_spi_rom\.data_buffer\[31\]
*1107 tt_um_algofoogle_vga_spi_rom\.vga_spi_rom\.data_buffer\[32\]
*1108 tt_um_algofoogle_vga_spi_rom\.vga_spi_rom\.data_buffer\[33\]
*1109 tt_um_algofoogle_vga_spi_rom\.vga_spi_rom\.data_buffer\[34\]
*1110 tt_um_algofoogle_vga_spi_rom\.vga_spi_rom\.data_buffer\[35\]
*1111 tt_um_algofoogle_vga_spi_rom\.vga_spi_rom\.data_buffer\[36\]
*1112 tt_um_algofoogle_vga_spi_rom\.vga_spi_rom\.data_buffer\[37\]
*1113 tt_um_algofoogle_vga_spi_rom\.vga_spi_rom\.data_buffer\[38\]
*1114 tt_um_algofoogle_vga_spi_rom\.vga_spi_rom\.data_buffer\[39\]
*1115 tt_um_algofoogle_vga_spi_rom\.vga_spi_rom\.data_buffer\[3\]
*1116 tt_um_algofoogle_vga_spi_rom\.vga_spi_rom\.data_buffer\[40\]
*1117 tt_um_algofoogle_vga_spi_rom\.vga_spi_rom\.data_buffer\[41\]
*1118 tt_um_algofoogle_vga_spi_rom\.vga_spi_rom\.data_buffer\[42\]
*1119 tt_um_algofoogle_vga_spi_rom\.vga_spi_rom\.data_buffer\[43\]
*1120 tt_um_algofoogle_vga_spi_rom\.vga_spi_rom\.data_buffer\[44\]
*1121 tt_um_algofoogle_vga_spi_rom\.vga_spi_rom\.data_buffer\[45\]
*1122 tt_um_algofoogle_vga_spi_rom\.vga_spi_rom\.data_buffer\[46\]
*1123 tt_um_algofoogle_vga_spi_rom\.vga_spi_rom\.data_buffer\[47\]
*1124 tt_um_algofoogle_vga_spi_rom\.vga_spi_rom\.data_buffer\[48\]
*1125 tt_um_algofoogle_vga_spi_rom\.vga_spi_rom\.data_buffer\[49\]
*1126 tt_um_algofoogle_vga_spi_rom\.vga_spi_rom\.data_buffer\[4\]
*1127 tt_um_algofoogle_vga_spi_rom\.vga_spi_rom\.data_buffer\[50\]
*1128 tt_um_algofoogle_vga_spi_rom\.vga_spi_rom\.data_buffer\[51\]
*1129 tt_um_algofoogle_vga_spi_rom\.vga_spi_rom\.data_buffer\[52\]
*1130 tt_um_algofoogle_vga_spi_rom\.vga_spi_rom\.data_buffer\[53\]
*1131 tt_um_algofoogle_vga_spi_rom\.vga_spi_rom\.data_buffer\[54\]
*1132 tt_um_algofoogle_vga_spi_rom\.vga_spi_rom\.data_buffer\[55\]
*1133 tt_um_algofoogle_vga_spi_rom\.vga_spi_rom\.data_buffer\[56\]
*1134 tt_um_algofoogle_vga_spi_rom\.vga_spi_rom\.data_buffer\[57\]
*1135 tt_um_algofoogle_vga_spi_rom\.vga_spi_rom\.data_buffer\[58\]
*1136 tt_um_algofoogle_vga_spi_rom\.vga_spi_rom\.data_buffer\[59\]
*1137 tt_um_algofoogle_vga_spi_rom\.vga_spi_rom\.data_buffer\[5\]
*1138 tt_um_algofoogle_vga_spi_rom\.vga_spi_rom\.data_buffer\[60\]
*1139 tt_um_algofoogle_vga_spi_rom\.vga_spi_rom\.data_buffer\[61\]
*1140 tt_um_algofoogle_vga_spi_rom\.vga_spi_rom\.data_buffer\[62\]
*1141 tt_um_algofoogle_vga_spi_rom\.vga_spi_rom\.data_buffer\[63\]
*1142 tt_um_algofoogle_vga_spi_rom\.vga_spi_rom\.data_buffer\[64\]
*1143 tt_um_algofoogle_vga_spi_rom\.vga_spi_rom\.data_buffer\[65\]
*1144 tt_um_algofoogle_vga_spi_rom\.vga_spi_rom\.data_buffer\[66\]
*1145 tt_um_algofoogle_vga_spi_rom\.vga_spi_rom\.data_buffer\[67\]
*1146 tt_um_algofoogle_vga_spi_rom\.vga_spi_rom\.data_buffer\[68\]
*1147 tt_um_algofoogle_vga_spi_rom\.vga_spi_rom\.data_buffer\[69\]
*1148 tt_um_algofoogle_vga_spi_rom\.vga_spi_rom\.data_buffer\[6\]
*1149 tt_um_algofoogle_vga_spi_rom\.vga_spi_rom\.data_buffer\[70\]
*1150 tt_um_algofoogle_vga_spi_rom\.vga_spi_rom\.data_buffer\[71\]
*1151 tt_um_algofoogle_vga_spi_rom\.vga_spi_rom\.data_buffer\[72\]
*1152 tt_um_algofoogle_vga_spi_rom\.vga_spi_rom\.data_buffer\[73\]
*1153 tt_um_algofoogle_vga_spi_rom\.vga_spi_rom\.data_buffer\[74\]
*1154 tt_um_algofoogle_vga_spi_rom\.vga_spi_rom\.data_buffer\[75\]
*1155 tt_um_algofoogle_vga_spi_rom\.vga_spi_rom\.data_buffer\[76\]
*1156 tt_um_algofoogle_vga_spi_rom\.vga_spi_rom\.data_buffer\[77\]
*1157 tt_um_algofoogle_vga_spi_rom\.vga_spi_rom\.data_buffer\[78\]
*1158 tt_um_algofoogle_vga_spi_rom\.vga_spi_rom\.data_buffer\[79\]
*1159 tt_um_algofoogle_vga_spi_rom\.vga_spi_rom\.data_buffer\[7\]
*1160 tt_um_algofoogle_vga_spi_rom\.vga_spi_rom\.data_buffer\[80\]
*1161 tt_um_algofoogle_vga_spi_rom\.vga_spi_rom\.data_buffer\[81\]
*1162 tt_um_algofoogle_vga_spi_rom\.vga_spi_rom\.data_buffer\[82\]
*1163 tt_um_algofoogle_vga_spi_rom\.vga_spi_rom\.data_buffer\[83\]
*1164 tt_um_algofoogle_vga_spi_rom\.vga_spi_rom\.data_buffer\[84\]
*1165 tt_um_algofoogle_vga_spi_rom\.vga_spi_rom\.data_buffer\[85\]
*1166 tt_um_algofoogle_vga_spi_rom\.vga_spi_rom\.data_buffer\[86\]
*1167 tt_um_algofoogle_vga_spi_rom\.vga_spi_rom\.data_buffer\[87\]
*1168 tt_um_algofoogle_vga_spi_rom\.vga_spi_rom\.data_buffer\[88\]
*1169 tt_um_algofoogle_vga_spi_rom\.vga_spi_rom\.data_buffer\[89\]
*1170 tt_um_algofoogle_vga_spi_rom\.vga_spi_rom\.data_buffer\[8\]
*1171 tt_um_algofoogle_vga_spi_rom\.vga_spi_rom\.data_buffer\[90\]
*1172 tt_um_algofoogle_vga_spi_rom\.vga_spi_rom\.data_buffer\[91\]
*1173 tt_um_algofoogle_vga_spi_rom\.vga_spi_rom\.data_buffer\[92\]
*1174 tt_um_algofoogle_vga_spi_rom\.vga_spi_rom\.data_buffer\[93\]
*1175 tt_um_algofoogle_vga_spi_rom\.vga_spi_rom\.data_buffer\[94\]
*1176 tt_um_algofoogle_vga_spi_rom\.vga_spi_rom\.data_buffer\[95\]
*1177 tt_um_algofoogle_vga_spi_rom\.vga_spi_rom\.data_buffer\[96\]
*1178 tt_um_algofoogle_vga_spi_rom\.vga_spi_rom\.data_buffer\[97\]
*1179 tt_um_algofoogle_vga_spi_rom\.vga_spi_rom\.data_buffer\[98\]
*1180 tt_um_algofoogle_vga_spi_rom\.vga_spi_rom\.data_buffer\[99\]
*1181 tt_um_algofoogle_vga_spi_rom\.vga_spi_rom\.data_buffer\[9\]
*1182 tt_um_algofoogle_vga_spi_rom\.vga_spi_rom\.data_index\[3\]
*1183 tt_um_algofoogle_vga_spi_rom\.vga_spi_rom\.hpos\[0\]
*1184 tt_um_algofoogle_vga_spi_rom\.vga_spi_rom\.hpos\[1\]
*1185 tt_um_algofoogle_vga_spi_rom\.vga_spi_rom\.hpos\[2\]
*1186 tt_um_algofoogle_vga_spi_rom\.vga_spi_rom\.hpos\[4\]
*1187 tt_um_algofoogle_vga_spi_rom\.vga_spi_rom\.hpos\[5\]
*1188 tt_um_algofoogle_vga_spi_rom\.vga_spi_rom\.hpos\[6\]
*1189 tt_um_algofoogle_vga_spi_rom\.vga_spi_rom\.hpos\[7\]
*1190 tt_um_algofoogle_vga_spi_rom\.vga_spi_rom\.hpos\[8\]
*1191 tt_um_algofoogle_vga_spi_rom\.vga_spi_rom\.hpos\[9\]
*1192 tt_um_algofoogle_vga_spi_rom\.vga_spi_rom\.quad
*1193 tt_um_algofoogle_vga_spi_rom\.vga_spi_rom\.vga_sync\.o_vpos\[0\]
*1194 tt_um_algofoogle_vga_spi_rom\.vga_spi_rom\.vga_sync\.o_vpos\[1\]
*1195 tt_um_algofoogle_vga_spi_rom\.vga_spi_rom\.vga_sync\.o_vpos\[2\]
*1196 tt_um_algofoogle_vga_spi_rom\.vga_spi_rom\.vga_sync\.o_vpos\[3\]
*1197 tt_um_algofoogle_vga_spi_rom\.vga_spi_rom\.vga_sync\.o_vpos\[4\]
*1198 tt_um_algofoogle_vga_spi_rom\.vga_spi_rom\.vga_sync\.o_vpos\[5\]
*1199 tt_um_algofoogle_vga_spi_rom\.vga_spi_rom\.vga_sync\.o_vpos\[6\]
*1200 tt_um_algofoogle_vga_spi_rom\.vga_spi_rom\.vga_sync\.o_vpos\[7\]
*1201 tt_um_algofoogle_vga_spi_rom\.vga_spi_rom\.vga_sync\.o_vpos\[9\]
*1202 tt_um_algofoogle_vga_spi_rom\.vga_spi_rom\.vga_sync\.vsync
*1203 ANTENNA__0950__A1
*1204 ANTENNA__0954__I
*1205 ANTENNA__0970__I
*1206 ANTENNA__0972__A1
*1207 ANTENNA__0972__A2
*1208 ANTENNA__0973__A2
*1209 ANTENNA__0973__B
*1210 ANTENNA__1017__I
*1211 ANTENNA__1019__A2
*1212 ANTENNA__1020__A1
*1213 ANTENNA__1023__A2
*1214 ANTENNA__1024__A1
*1215 ANTENNA__1026__A1
*1216 ANTENNA__1026__A2
*1217 ANTENNA__1027__A1
*1218 ANTENNA__1029__A2
*1219 ANTENNA__1030__A2
*1220 ANTENNA__1031__B
*1221 ANTENNA__1033__A2
*1222 ANTENNA__1035__A2
*1223 ANTENNA__1043__I
*1224 ANTENNA__1047__I
*1225 ANTENNA__1048__I
*1226 ANTENNA__1049__B1
*1227 ANTENNA__1052__A1
*1228 ANTENNA__1052__A2
*1229 ANTENNA__1052__A3
*1230 ANTENNA__1054__A1
*1231 ANTENNA__1065__A1
*1232 ANTENNA__1067__B
*1233 ANTENNA__1074__A2
*1234 ANTENNA__1077__A1
*1235 ANTENNA__1082__I
*1236 ANTENNA__1085__I
*1237 ANTENNA__1090__I
*1238 ANTENNA__1093__A1
*1239 ANTENNA__1093__A2
*1240 ANTENNA__1098__A1
*1241 ANTENNA__1100__A2
*1242 ANTENNA__1108__I
*1243 ANTENNA__1109__I
*1244 ANTENNA__1110__A1
*1245 ANTENNA__1117__I
*1246 ANTENNA__1119__A1
*1247 ANTENNA__1120__I
*1248 ANTENNA__1125__A1
*1249 ANTENNA__1128__I
*1250 ANTENNA__1131__I
*1251 ANTENNA__1134__A3
*1252 ANTENNA__1137__A1
*1253 ANTENNA__1138__A1
*1254 ANTENNA__1138__A2
*1255 ANTENNA__1140__A1
*1256 ANTENNA__1158__I
*1257 ANTENNA__1162__S
*1258 ANTENNA__1164__I
*1259 ANTENNA__1166__I
*1260 ANTENNA__1167__A1
*1261 ANTENNA__1169__A1
*1262 ANTENNA__1170__A1
*1263 ANTENNA__1170__C
*1264 ANTENNA__1171__A1
*1265 ANTENNA__1171__A2
*1266 ANTENNA__1175__A1
*1267 ANTENNA__1176__A1
*1268 ANTENNA__1178__A2
*1269 ANTENNA__1178__B
*1270 ANTENNA__1179__A2
*1271 ANTENNA__1180__A1
*1272 ANTENNA__1184__I
*1273 ANTENNA__1185__A1
*1274 ANTENNA__1186__I
*1275 ANTENNA__1187__C
*1276 ANTENNA__1189__A2
*1277 ANTENNA__1191__A2
*1278 ANTENNA__1192__A1
*1279 ANTENNA__1193__A1
*1280 ANTENNA__1194__C
*1281 ANTENNA__1196__I
*1282 ANTENNA__1199__A1
*1283 ANTENNA__1199__B
*1284 ANTENNA__1201__B
*1285 ANTENNA__1203__B
*1286 ANTENNA__1205__A1
*1287 ANTENNA__1206__I
*1288 ANTENNA__1209__A2
*1289 ANTENNA__1210__A2
*1290 ANTENNA__1211__A1
*1291 ANTENNA__1212__A1
*1292 ANTENNA__1216__B
*1293 ANTENNA__1219__I
*1294 ANTENNA__1221__C
*1295 ANTENNA__1222__I
*1296 ANTENNA__1223__S
*1297 ANTENNA__1225__B
*1298 ANTENNA__1227__I
*1299 ANTENNA__1228__C
*1300 ANTENNA__1230__I
*1301 ANTENNA__1231__I0
*1302 ANTENNA__1234__C
*1303 ANTENNA__1236__B
*1304 ANTENNA__1236__C
*1305 ANTENNA__1237__B
*1306 ANTENNA__1238__S
*1307 ANTENNA__1240__I
*1308 ANTENNA__1242__A1
*1309 ANTENNA__1243__A1
*1310 ANTENNA__1244__A1
*1311 ANTENNA__1244__C
*1312 ANTENNA__1248__A1
*1313 ANTENNA__1250__A2
*1314 ANTENNA__1250__B
*1315 ANTENNA__1251__A2
*1316 ANTENNA__1252__A1
*1317 ANTENNA__1255__I
*1318 ANTENNA__1256__A1
*1319 ANTENNA__1258__A1
*1320 ANTENNA__1258__A2
*1321 ANTENNA__1259__A2
*1322 ANTENNA__1260__A1
*1323 ANTENNA__1261__A1
*1324 ANTENNA__1262__A1
*1325 ANTENNA__1262__C
*1326 ANTENNA__1264__S
*1327 ANTENNA__1265__A1
*1328 ANTENNA__1265__B
*1329 ANTENNA__1266__B
*1330 ANTENNA__1267__B
*1331 ANTENNA__1269__A2
*1332 ANTENNA__1270__A1
*1333 ANTENNA__1270__C
*1334 ANTENNA__1271__A1
*1335 ANTENNA__1271__A2
*1336 ANTENNA__1273__A2
*1337 ANTENNA__1274__A1
*1338 ANTENNA__1276__A1
*1339 ANTENNA__1278__A1
*1340 ANTENNA__1278__B
*1341 ANTENNA__1281__A1
*1342 ANTENNA__1282__A2
*1343 ANTENNA__1286__C
*1344 ANTENNA__1288__B
*1345 ANTENNA__1289__C
*1346 ANTENNA__1290__C
*1347 ANTENNA__1295__I3
*1348 ANTENNA__1295__S0
*1349 ANTENNA__1295__S1
*1350 ANTENNA__1296__A1
*1351 ANTENNA__1297__S0
*1352 ANTENNA__1297__S1
*1353 ANTENNA__1298__A1
*1354 ANTENNA__1301__I
*1355 ANTENNA__1303__I
*1356 ANTENNA__1304__A1
*1357 ANTENNA__1306__A2
*1358 ANTENNA__1306__C
*1359 ANTENNA__1308__A1
*1360 ANTENNA__1309__A2
*1361 ANTENNA__1309__C
*1362 ANTENNA__1311__C
*1363 ANTENNA__1312__A1
*1364 ANTENNA__1313__A1
*1365 ANTENNA__1314__A2
*1366 ANTENNA__1314__C
*1367 ANTENNA__1316__A1
*1368 ANTENNA__1317__A1
*1369 ANTENNA__1317__A2
*1370 ANTENNA__1317__B1
*1371 ANTENNA__1317__B2
*1372 ANTENNA__1317__C
*1373 ANTENNA__1318__C
*1374 ANTENNA__1319__A1
*1375 ANTENNA__1320__A1
*1376 ANTENNA__1321__A1
*1377 ANTENNA__1322__B
*1378 ANTENNA__1325__A2
*1379 ANTENNA__1326__A2
*1380 ANTENNA__1326__C
*1381 ANTENNA__1327__A1
*1382 ANTENNA__1328__A1
*1383 ANTENNA__1329__B
*1384 ANTENNA__1331__A2
*1385 ANTENNA__1332__A2
*1386 ANTENNA__1332__C
*1387 ANTENNA__1333__C
*1388 ANTENNA__1336__A1
*1389 ANTENNA__1336__A2
*1390 ANTENNA__1337__A2
*1391 ANTENNA__1338__A1
*1392 ANTENNA__1340__C
*1393 ANTENNA__1341__S
*1394 ANTENNA__1342__B
*1395 ANTENNA__1343__B
*1396 ANTENNA__1344__B
*1397 ANTENNA__1345__B
*1398 ANTENNA__1346__S
*1399 ANTENNA__1348__A2
*1400 ANTENNA__1349__A2
*1401 ANTENNA__1351__A1
*1402 ANTENNA__1352__A1
*1403 ANTENNA__1354__A2
*1404 ANTENNA__1354__B
*1405 ANTENNA__1355__A2
*1406 ANTENNA__1356__A1
*1407 ANTENNA__1357__A1
*1408 ANTENNA__1358__C
*1409 ANTENNA__1359__A2
*1410 ANTENNA__1360__A2
*1411 ANTENNA__1361__A1
*1412 ANTENNA__1362__A2
*1413 ANTENNA__1363__A1
*1414 ANTENNA__1363__C
*1415 ANTENNA__1365__B
*1416 ANTENNA__1366__B
*1417 ANTENNA__1367__B
*1418 ANTENNA__1369__A1
*1419 ANTENNA__1370__A2
*1420 ANTENNA__1371__A1
*1421 ANTENNA__1371__A2
*1422 ANTENNA__1371__B
*1423 ANTENNA__1372__A2
*1424 ANTENNA__1373__A1
*1425 ANTENNA__1373__A2
*1426 ANTENNA__1376__B
*1427 ANTENNA__1379__C
*1428 ANTENNA__1380__S
*1429 ANTENNA__1382__A1
*1430 ANTENNA__1383__C
*1431 ANTENNA__1384__S
*1432 ANTENNA__1385__B
*1433 ANTENNA__1386__C
*1434 ANTENNA__1387__C
*1435 ANTENNA__1392__A2
*1436 ANTENNA__1392__C
*1437 ANTENNA__1394__A2
*1438 ANTENNA__1400__A3
*1439 ANTENNA__1405__A2
*1440 ANTENNA__1405__B
*1441 ANTENNA__1414__1_I
*1442 ANTENNA__1416__I
*1443 ANTENNA__1417__I
*1444 ANTENNA__1420__A1
*1445 ANTENNA__1422__A1
*1446 ANTENNA__1423__A1
*1447 ANTENNA__1424__A1
*1448 ANTENNA__1424__A3
*1449 ANTENNA__1437__I
*1450 ANTENNA__1438__A1
*1451 ANTENNA__1444__I
*1452 ANTENNA__1460__A2
*1453 ANTENNA__1463__C
*1454 ANTENNA__1496__B
*1455 ANTENNA__1499__A1
*1456 ANTENNA__1499__A2
*1457 ANTENNA__1507__I1
*1458 ANTENNA__1512__I
*1459 ANTENNA__1527__I
*1460 ANTENNA__1530__I
*1461 ANTENNA__1556__I0
*1462 ANTENNA__1558__I
*1463 ANTENNA__1560__I1
*1464 ANTENNA__1573__I0
*1465 ANTENNA__1575__I1
*1466 ANTENNA__1595__I
*1467 ANTENNA__1610__I