*SPEF "ieee 1481-1999"
*DESIGN "top_solo_squash"
*DATE "11:11:11 Fri 11 11, 1111"
*VENDOR "OpenRCX"
*PROGRAM "Parallel Extraction"
*VERSION "1.0"
*DESIGN_FLOW "NAME_SCOPE LOCAL" "PIN_CAP NONE"
*DIVIDER /
*DELIMITER :
*BUS_DELIMITER []
*T_UNIT 1 NS
*C_UNIT 1 PF
*R_UNIT 1 OHM
*L_UNIT 1 HENRY

*NAME_MAP
*1 clk
*2 gpio_ready
*3 io_in[0]
*4 io_in[10]
*5 io_in[11]
*6 io_in[12]
*7 io_in[1]
*8 io_in[2]
*9 io_in[3]
*10 io_in[4]
*11 io_in[5]
*12 io_in[6]
*13 io_in[7]
*14 io_in[8]
*15 io_in[9]
*16 net16
*17 io_out[10]
*18 io_out[11]
*19 io_out[12]
*20 net17
*21 net18
*22 net19
*23 net20
*24 io_out[5]
*25 io_out[6]
*26 io_out[7]
*27 io_out[8]
*28 io_out[9]
*29 rst
*32 _0000_
*33 _0001_
*34 _0002_
*35 _0003_
*36 _0004_
*37 _0005_
*38 _0006_
*39 _0007_
*40 _0008_
*41 _0009_
*42 _0010_
*43 _0011_
*44 _0012_
*45 _0013_
*46 _0014_
*47 _0015_
*48 _0016_
*49 _0017_
*50 _0018_
*51 _0019_
*52 _0020_
*53 _0021_
*54 _0022_
*55 _0023_
*56 _0024_
*57 _0025_
*58 _0026_
*59 _0027_
*60 _0028_
*61 _0029_
*62 _0030_
*63 _0031_
*64 _0032_
*65 _0033_
*66 _0034_
*67 _0035_
*68 _0036_
*69 _0037_
*70 _0038_
*71 _0039_
*72 _0040_
*73 _0041_
*74 _0042_
*75 _0043_
*76 _0044_
*77 _0045_
*78 _0046_
*79 _0047_
*80 _0048_
*81 _0049_
*82 _0050_
*83 _0051_
*84 _0052_
*85 _0053_
*86 _0054_
*87 _0055_
*88 _0056_
*89 _0057_
*90 _0058_
*91 _0059_
*92 _0060_
*93 _0061_
*94 _0062_
*95 _0063_
*96 _0064_
*97 _0065_
*98 _0066_
*99 _0067_
*100 _0068_
*101 _0069_
*102 _0070_
*103 _0071_
*104 _0072_
*105 _0073_
*106 _0074_
*107 _0075_
*108 _0076_
*109 _0077_
*110 _0078_
*111 _0079_
*112 _0080_
*113 _0081_
*114 _0082_
*115 _0083_
*116 _0084_
*117 _0085_
*118 _0086_
*119 _0087_
*120 _0088_
*121 _0089_
*122 _0090_
*123 _0091_
*124 _0092_
*125 _0093_
*126 _0094_
*127 _0095_
*128 _0096_
*129 _0097_
*130 _0098_
*131 _0099_
*132 _0100_
*133 _0101_
*134 _0102_
*135 _0103_
*136 _0104_
*137 _0105_
*138 _0106_
*139 _0107_
*140 _0108_
*141 _0109_
*142 _0110_
*143 _0111_
*144 _0112_
*145 _0113_
*146 _0114_
*147 _0115_
*148 _0116_
*149 _0117_
*150 _0118_
*151 _0119_
*152 _0120_
*153 _0121_
*154 _0122_
*155 _0123_
*156 _0124_
*157 _0125_
*158 _0126_
*159 _0127_
*160 _0128_
*161 _0129_
*162 _0130_
*163 _0131_
*164 _0132_
*165 _0133_
*166 _0134_
*167 _0135_
*168 _0136_
*169 _0137_
*170 _0138_
*171 _0139_
*172 _0140_
*173 _0141_
*174 _0142_
*175 _0143_
*176 _0144_
*177 _0145_
*178 _0146_
*179 _0147_
*180 _0148_
*181 _0149_
*182 _0150_
*183 _0151_
*184 _0152_
*185 _0153_
*186 _0154_
*187 _0155_
*188 _0156_
*189 _0157_
*190 _0158_
*191 _0159_
*192 _0160_
*193 _0161_
*194 _0162_
*195 _0163_
*196 _0164_
*197 _0165_
*198 _0166_
*199 _0167_
*200 _0168_
*201 _0169_
*202 _0170_
*203 _0171_
*204 _0172_
*205 _0173_
*206 _0174_
*207 _0175_
*208 _0176_
*209 _0177_
*210 _0178_
*211 _0179_
*212 _0180_
*213 _0181_
*214 _0182_
*215 _0183_
*216 _0184_
*217 _0185_
*218 _0186_
*219 _0187_
*220 _0188_
*221 _0189_
*222 _0190_
*223 _0191_
*224 _0192_
*225 _0193_
*226 _0194_
*227 _0195_
*228 _0196_
*229 _0197_
*230 _0198_
*231 _0199_
*232 _0200_
*233 _0201_
*234 _0202_
*235 _0203_
*236 _0204_
*237 _0205_
*238 _0206_
*239 _0207_
*240 _0208_
*241 _0209_
*242 _0210_
*243 _0211_
*244 _0212_
*245 _0213_
*246 _0214_
*247 _0215_
*248 _0216_
*249 _0217_
*250 _0218_
*251 _0219_
*252 _0220_
*253 _0221_
*254 _0222_
*255 _0223_
*256 _0224_
*257 _0225_
*258 _0226_
*259 _0227_
*260 _0228_
*261 _0229_
*262 _0230_
*263 _0231_
*264 _0232_
*265 _0233_
*266 _0234_
*267 _0235_
*268 _0236_
*269 _0237_
*270 _0238_
*271 _0239_
*272 _0240_
*273 _0241_
*274 _0242_
*275 _0243_
*276 _0244_
*277 _0245_
*278 _0246_
*279 _0247_
*280 _0248_
*281 _0249_
*282 _0250_
*283 _0251_
*284 _0252_
*285 _0253_
*286 _0254_
*287 _0255_
*288 _0256_
*289 _0257_
*290 _0258_
*291 _0259_
*292 _0260_
*293 _0261_
*294 _0262_
*295 _0263_
*296 _0264_
*297 _0265_
*298 _0266_
*299 _0267_
*300 _0268_
*301 _0269_
*302 _0270_
*303 _0271_
*304 _0272_
*305 _0273_
*306 _0274_
*307 _0275_
*308 _0276_
*309 _0277_
*310 _0278_
*311 _0279_
*312 _0280_
*313 _0281_
*314 _0282_
*315 _0283_
*316 _0284_
*317 _0285_
*318 _0286_
*319 _0287_
*320 _0288_
*321 _0289_
*322 _0290_
*323 _0291_
*324 _0292_
*325 _0293_
*326 _0294_
*327 _0295_
*328 _0296_
*329 _0297_
*330 _0298_
*331 _0299_
*332 _0300_
*333 _0301_
*334 _0302_
*335 _0303_
*336 _0304_
*337 _0305_
*338 _0306_
*339 _0307_
*340 _0308_
*341 _0309_
*342 _0310_
*343 _0311_
*344 _0312_
*345 _0313_
*346 _0314_
*347 _0315_
*348 _0316_
*349 _0317_
*350 _0318_
*351 _0319_
*352 _0320_
*353 _0321_
*354 _0322_
*355 _0323_
*356 _0324_
*357 _0325_
*358 _0326_
*359 _0327_
*360 _0328_
*361 _0329_
*362 _0330_
*363 _0331_
*364 _0332_
*365 _0333_
*366 _0334_
*367 _0335_
*368 _0336_
*369 _0337_
*370 _0338_
*371 _0339_
*372 _0340_
*373 _0341_
*374 _0342_
*375 _0343_
*376 _0344_
*377 _0345_
*378 _0346_
*379 _0347_
*380 _0348_
*381 _0349_
*382 _0350_
*383 _0351_
*384 _0352_
*385 _0353_
*386 _0354_
*387 _0355_
*388 _0356_
*389 _0357_
*390 _0358_
*391 _0359_
*392 _0360_
*393 _0361_
*394 _0362_
*395 _0363_
*396 _0364_
*397 _0365_
*398 _0366_
*399 _0367_
*400 _0368_
*401 _0369_
*402 _0370_
*403 _0371_
*404 _0372_
*405 _0373_
*406 _0374_
*407 _0375_
*408 _0376_
*409 _0377_
*410 _0378_
*411 _0379_
*412 _0380_
*413 _0381_
*414 _0382_
*415 _0383_
*416 _0384_
*417 _0385_
*418 _0386_
*419 _0387_
*420 _0388_
*421 _0389_
*422 _0390_
*423 _0391_
*424 _0392_
*425 _0393_
*426 _0394_
*427 _0395_
*428 _0396_
*429 _0397_
*430 _0398_
*431 _0399_
*432 _0400_
*433 _0401_
*434 _0402_
*435 _0403_
*436 _0404_
*437 _0405_
*438 _0406_
*439 _0407_
*440 _0408_
*441 _0409_
*442 _0410_
*443 _0411_
*444 _0412_
*445 _0413_
*446 _0414_
*447 _0415_
*448 _0416_
*449 _0417_
*450 _0418_
*451 _0419_
*452 _0420_
*453 _0421_
*454 _0422_
*455 _0423_
*456 _0424_
*457 _0425_
*458 _0426_
*459 _0427_
*460 _0428_
*461 _0429_
*462 _0430_
*463 _0431_
*464 _0432_
*465 _0433_
*466 _0434_
*467 _0435_
*468 _0436_
*469 _0437_
*470 _0438_
*471 _0439_
*472 _0440_
*473 _0441_
*474 _0442_
*475 _0443_
*476 _0444_
*477 _0445_
*478 _0446_
*479 _0447_
*480 _0448_
*481 _0449_
*482 _0450_
*483 _0451_
*484 _0452_
*485 _0453_
*486 _0454_
*487 _0455_
*488 _0456_
*489 _0457_
*490 _0458_
*491 _0459_
*492 _0460_
*493 _0461_
*494 _0462_
*495 _0463_
*496 _0464_
*497 _0465_
*498 _0466_
*499 _0467_
*500 _0468_
*501 _0469_
*502 _0470_
*503 _0471_
*504 _0472_
*505 _0473_
*506 _0474_
*507 _0475_
*508 _0476_
*509 _0477_
*510 _0478_
*511 _0479_
*512 _0480_
*513 _0481_
*514 _0482_
*515 _0483_
*516 _0484_
*517 _0485_
*518 _0486_
*519 _0487_
*520 _0488_
*521 _0489_
*522 _0490_
*523 _0491_
*524 _0492_
*525 _0493_
*526 _0494_
*527 _0495_
*528 _0496_
*529 _0497_
*530 _0498_
*531 _0499_
*532 _0500_
*533 _0501_
*534 _0502_
*535 _0503_
*536 _0504_
*537 _0505_
*538 _0506_
*539 _0507_
*540 _0508_
*541 _0509_
*542 _0510_
*543 _0511_
*544 _0512_
*545 _0513_
*546 _0514_
*547 _0515_
*548 _0516_
*549 _0517_
*550 _0518_
*551 _0519_
*552 _0520_
*553 _0521_
*554 _0522_
*555 _0523_
*556 _0524_
*557 _0525_
*558 _0526_
*559 _0527_
*560 _0528_
*561 _0529_
*562 _0530_
*563 _0531_
*564 _0532_
*565 _0533_
*566 _0534_
*567 _0535_
*568 _0536_
*569 _0537_
*570 _0538_
*571 _0539_
*572 _0540_
*573 _0541_
*574 _0542_
*575 _0543_
*576 _0544_
*577 _0545_
*578 _0546_
*579 _0547_
*580 _0548_
*581 _0549_
*582 _0550_
*583 _0551_
*584 _0552_
*585 clknet_0_clk
*586 clknet_3_0__leaf_clk
*587 clknet_3_1__leaf_clk
*588 clknet_3_2__leaf_clk
*589 clknet_3_3__leaf_clk
*590 clknet_3_4__leaf_clk
*591 clknet_3_5__leaf_clk
*592 clknet_3_6__leaf_clk
*593 clknet_3_7__leaf_clk
*594 net1
*595 net10
*596 net11
*597 net12
*598 net13
*599 net14
*600 net15
*601 net2
*602 net21
*603 net22
*604 net23
*605 net24
*606 net25
*607 net26
*608 net27
*609 net28
*610 net29
*611 net3
*612 net30
*613 net31
*614 net32
*615 net33
*616 net34
*617 net35
*618 net36
*619 net37
*620 net38
*621 net39
*622 net4
*623 net40
*624 net41
*625 net5
*626 net6
*627 net7
*628 net8
*629 net9
*630 solo_squash\.ballDirX
*631 solo_squash\.ballDirY
*632 solo_squash\.ballX\[0\]
*633 solo_squash\.ballX\[1\]
*634 solo_squash\.ballX\[2\]
*635 solo_squash\.ballX\[3\]
*636 solo_squash\.ballX\[4\]
*637 solo_squash\.ballX\[5\]
*638 solo_squash\.ballX\[6\]
*639 solo_squash\.ballX\[7\]
*640 solo_squash\.ballX\[8\]
*641 solo_squash\.ballY\[0\]
*642 solo_squash\.ballY\[1\]
*643 solo_squash\.ballY\[2\]
*644 solo_squash\.ballY\[3\]
*645 solo_squash\.ballY\[4\]
*646 solo_squash\.ballY\[5\]
*647 solo_squash\.ballY\[6\]
*648 solo_squash\.ballY\[7\]
*649 solo_squash\.h\[0\]
*650 solo_squash\.h\[1\]
*651 solo_squash\.h\[2\]
*652 solo_squash\.h\[3\]
*653 solo_squash\.h\[4\]
*654 solo_squash\.h\[5\]
*655 solo_squash\.h\[6\]
*656 solo_squash\.h\[7\]
*657 solo_squash\.h\[8\]
*658 solo_squash\.h\[9\]
*659 solo_squash\.hit
*660 solo_squash\.inBallX
*661 solo_squash\.inBallY
*662 solo_squash\.inPaddle
*663 solo_squash\.offset\[0\]
*664 solo_squash\.offset\[1\]
*665 solo_squash\.offset\[2\]
*666 solo_squash\.offset\[3\]
*667 solo_squash\.offset\[4\]
*668 solo_squash\.paddle\[0\]
*669 solo_squash\.paddle\[1\]
*670 solo_squash\.paddle\[2\]
*671 solo_squash\.paddle\[3\]
*672 solo_squash\.paddle\[4\]
*673 solo_squash\.paddle\[5\]
*674 solo_squash\.paddle\[6\]
*675 solo_squash\.paddle\[7\]
*676 solo_squash\.paddle\[8\]
*677 solo_squash\.v\[0\]
*678 solo_squash\.v\[1\]
*679 solo_squash\.v\[2\]
*680 solo_squash\.v\[3\]
*681 solo_squash\.v\[4\]
*682 solo_squash\.v\[5\]
*683 solo_squash\.v\[6\]
*684 solo_squash\.v\[7\]
*685 solo_squash\.v\[8\]
*686 solo_squash\.v\[9\]
*687 ANTENNA__0554__A2
*688 ANTENNA__0570__A1
*689 ANTENNA__0574__A1
*690 ANTENNA__0576__A1
*691 ANTENNA__0584__I
*692 ANTENNA__0585__A1
*693 ANTENNA__0589__A1
*694 ANTENNA__0615__A1
*695 ANTENNA__0626__A1
*696 ANTENNA__0649__A1
*697 ANTENNA__0673__I
*698 ANTENNA__0688__I
*699 ANTENNA__0690__I
*700 ANTENNA__0696__A2
*701 ANTENNA__0700__A1
*702 ANTENNA__0702__A2
*703 ANTENNA__0703__A1
*704 ANTENNA__0705__A1
*705 ANTENNA__0706__I
*706 ANTENNA__0708__A2
*707 ANTENNA__0709__A3
*708 ANTENNA__0710__A1
*709 ANTENNA__0714__B
*710 ANTENNA__0718__A1
*711 ANTENNA__0721__A1
*712 ANTENNA__0730__A1
*713 ANTENNA__0730__B
*714 ANTENNA__0734__A1
*715 ANTENNA__0734__B
*716 ANTENNA__0736__B
*717 ANTENNA__0747__C
*718 ANTENNA__0749__A2
*719 ANTENNA__0750__A1
*720 ANTENNA__0752__I
*721 ANTENNA__0753__A1
*722 ANTENNA__0764__B2
*723 ANTENNA__0765__A1
*724 ANTENNA__0772__A1
*725 ANTENNA__0774__I
*726 ANTENNA__0786__B2
*727 ANTENNA__0787__A1
*728 ANTENNA__0798__B
*729 ANTENNA__0800__A1
*730 ANTENNA__0810__I
*731 ANTENNA__0811__I
*732 ANTENNA__0812__B2
*733 ANTENNA__0813__A1
*734 ANTENNA__0823__B2
*735 ANTENNA__0824__A1
*736 ANTENNA__0827__A2
*737 ANTENNA__0827__B
*738 ANTENNA__0828__A2
*739 ANTENNA__0829__A1
*740 ANTENNA__0833__A2
*741 ANTENNA__0833__B2
*742 ANTENNA__0834__A1
*743 ANTENNA__0835__I
*744 ANTENNA__0842__A2
*745 ANTENNA__0842__B2
*746 ANTENNA__0852__I
*747 ANTENNA__0867__A1
*748 ANTENNA__0868__A2
*749 ANTENNA__0869__A1
*750 ANTENNA__0874__B
*751 ANTENNA__0877__I
*752 ANTENNA__0884__A1
*753 ANTENNA__0884__A2
*754 ANTENNA__0884__B
*755 ANTENNA__0885__A1
*756 ANTENNA__0885__A2
*757 ANTENNA__0888__A2
*758 ANTENNA__0889__A1
*759 ANTENNA__0890__A1
*760 ANTENNA__0894__A2
*761 ANTENNA__0898__A1
*762 ANTENNA__0903__A2
*763 ANTENNA__0908__A2
*764 ANTENNA__0910__A1
*765 ANTENNA__0910__A2
*766 ANTENNA__0918__B
*767 ANTENNA__0922__B
*768 ANTENNA__0925__A2
*769 ANTENNA__0926__B
*770 ANTENNA__0927__I
*771 ANTENNA__0932__B
*772 ANTENNA__0935__A1
*773 ANTENNA__0943__A1
*774 ANTENNA__0944__A2
*775 ANTENNA__0951__A1
*776 ANTENNA__0952__B
*777 ANTENNA__0953__A1
*778 ANTENNA__0965__A1
*779 ANTENNA__0974__B
*780 ANTENNA__0974__C
*781 ANTENNA__0977__A1
*782 ANTENNA__0980__A2
*783 ANTENNA__0982__A2
*784 ANTENNA__0988__A2
*785 ANTENNA__0989__A2
*786 ANTENNA__1003__C
*787 ANTENNA__1007__A1
*788 ANTENNA__1010__A1
*789 ANTENNA__1016__A1
*790 ANTENNA__1020__A1
*791 ANTENNA__1021__A1
*792 ANTENNA__1024__A1
*793 ANTENNA__1028__A1
*794 ANTENNA__1039__A1
*795 ANTENNA__1041__A2
*796 ANTENNA__1049__A1
*797 ANTENNA__1052__A1
*798 ANTENNA__1055__A1
*799 ANTENNA__1074__A1
*800 ANTENNA__1076__A2
*801 ANTENNA__1076__B
*802 ANTENNA__1077__A1
*803 ANTENNA__1079__A1
*804 ANTENNA__1082__A2
*805 ANTENNA__1083__I
*806 ANTENNA__1085__A3
*807 ANTENNA__1086__B
*808 ANTENNA__1091__A1
*809 ANTENNA__1093__A1
*810 ANTENNA__1095__A1
*811 ANTENNA__1096__A1
*812 ANTENNA__1099__A1
*813 ANTENNA__1099__C
*814 ANTENNA__1100__B
*815 ANTENNA__1104__A1
*816 ANTENNA__1109__A1
*817 ANTENNA__1110__C
*818 ANTENNA__1111__A1
*819 ANTENNA__1113__CLK
*820 ANTENNA__1114__CLK
*821 ANTENNA__1115__CLK
*822 ANTENNA__1116__CLK
*823 ANTENNA__1117__CLK
*824 ANTENNA__1118__CLK
*825 ANTENNA__1119__CLK
*826 ANTENNA__1120__CLK
*827 ANTENNA__1121__CLK
*828 ANTENNA__1122__CLK
*829 ANTENNA__1123__CLK
*830 ANTENNA__1124__CLK
*831 ANTENNA__1125__CLK
*832 ANTENNA__1126__CLK
*833 ANTENNA__1127__CLK
*834 ANTENNA__1128__CLK
*835 ANTENNA__1129__CLK
*836 ANTENNA__1130__CLK
*837 ANTENNA__1131__CLK
*838 ANTENNA__1132__CLK
*839 ANTENNA__1133__CLK
*840 ANTENNA__1134__CLK
*841 ANTENNA__1135__CLK
*842 ANTENNA__1136__CLK
*843 ANTENNA__1137__CLK
*844 ANTENNA__1138__CLK
*845 ANTENNA__1139__CLK
*846 ANTENNA__1140__CLK
*847 ANTENNA__1141__CLK
*848 ANTENNA__1142__CLK
*849 ANTENNA__1143__CLK
*850 ANTENNA__1144__CLK
*851 ANTENNA__1145__CLK
*852 ANTENNA__1146__CLK
*853 ANTENNA__1147__CLK
*854 ANTENNA__1148__CLK
*855 ANTENNA__1149__CLK
*856 ANTENNA__1150__CLK
*857 ANTENNA__1151__CLK
*858 ANTENNA__1152__CLK
*859 ANTENNA__1153__CLK
*860 ANTENNA__1154__CLK
*861 ANTENNA__1155__CLK
*862 ANTENNA__1156__CLK
*863 ANTENNA__1157__CLK
*864 ANTENNA__1158__CLK
*865 ANTENNA__1159__CLK
*866 ANTENNA__1160__CLK
*867 ANTENNA__1161__CLK
*868 ANTENNA__1162__CLK
*869 ANTENNA__1163__CLK
*870 ANTENNA__1164__CLK
*871 ANTENNA__1165__CLK
*872 ANTENNA__1166__CLK
*873 ANTENNA__1167__CLK
*874 ANTENNA__1168__CLK
*875 ANTENNA__1169__CLK
*876 ANTENNA_clkbuf_0_clk_I
*877 ANTENNA_clkbuf_3_0__f_clk_I
*878 ANTENNA_clkbuf_3_1__f_clk_I
*879 ANTENNA_clkbuf_3_2__f_clk_I
*880 ANTENNA_clkbuf_3_3__f_clk_I
*881 ANTENNA_clkbuf_3_4__f_clk_I
*882 ANTENNA_clkbuf_3_5__f_clk_I
*883 ANTENNA_clkbuf_3_6__f_clk_I
*884 ANTENNA_clkbuf_3_7__f_clk_I
*885 ANTENNA_hold12_I
*886 ANTENNA_hold13_I
*887 ANTENNA_hold18_I
*888 ANTENNA_hold20_I
*889 ANTENNA_hold21_I
*890 ANTENNA_hold2_I
*891 ANTENNA_input1_I
*892 ANTENNA_input7_I
*893 ANTENNA_output14_I
*894 ANTENNA_output9_I
*895 FILLER_0_0_10
*896 FILLER_0_0_104
*897 FILLER_0_0_108
*898 FILLER_0_0_14
*899 FILLER_0_0_168
*900 FILLER_0_0_172
*901 FILLER_0_0_177
*902 FILLER_0_0_189
*903 FILLER_0_0_197
*904 FILLER_0_0_2
*905 FILLER_0_0_201
*906 FILLER_0_0_203
*907 FILLER_0_0_206
*908 FILLER_0_0_23
*909 FILLER_0_0_240
*910 FILLER_0_0_242
*911 FILLER_0_0_245
*912 FILLER_0_0_261
*913 FILLER_0_0_263
*914 FILLER_0_0_274
*915 FILLER_0_0_31
*916 FILLER_0_0_339
*917 FILLER_0_0_342
*918 FILLER_0_0_70
*919 FILLER_0_0_74
*920 FILLER_0_10_102
*921 FILLER_0_10_104
*922 FILLER_0_10_107
*923 FILLER_0_10_138
*924 FILLER_0_10_142
*925 FILLER_0_10_144
*926 FILLER_0_10_168
*927 FILLER_0_10_172
*928 FILLER_0_10_177
*929 FILLER_0_10_179
*930 FILLER_0_10_197
*931 FILLER_0_10_2
*932 FILLER_0_10_201
*933 FILLER_0_10_209
*934 FILLER_0_10_236
*935 FILLER_0_10_238
*936 FILLER_0_10_243
*937 FILLER_0_10_247
*938 FILLER_0_10_251
*939 FILLER_0_10_267
*940 FILLER_0_10_269
*941 FILLER_0_10_281
*942 FILLER_0_10_297
*943 FILLER_0_10_301
*944 FILLER_0_10_303
*945 FILLER_0_10_310
*946 FILLER_0_10_312
*947 FILLER_0_10_336
*948 FILLER_0_10_34
*949 FILLER_0_10_340
*950 FILLER_0_10_342
*951 FILLER_0_10_37
*952 FILLER_0_10_79
*953 FILLER_0_10_87
*954 FILLER_0_11_102
*955 FILLER_0_11_134
*956 FILLER_0_11_138
*957 FILLER_0_11_142
*958 FILLER_0_11_167
*959 FILLER_0_11_175
*960 FILLER_0_11_177
*961 FILLER_0_11_184
*962 FILLER_0_11_188
*963 FILLER_0_11_2
*964 FILLER_0_11_204
*965 FILLER_0_11_212
*966 FILLER_0_11_261
*967 FILLER_0_11_277
*968 FILLER_0_11_279
*969 FILLER_0_11_282
*970 FILLER_0_11_296
*971 FILLER_0_11_304
*972 FILLER_0_11_306
*973 FILLER_0_11_313
*974 FILLER_0_11_327
*975 FILLER_0_11_36
*976 FILLER_0_11_40
*977 FILLER_0_11_42
*978 FILLER_0_11_49
*979 FILLER_0_11_53
*980 FILLER_0_11_55
*981 FILLER_0_11_6
*982 FILLER_0_11_69
*983 FILLER_0_11_84
*984 FILLER_0_11_92
*985 FILLER_0_12_104
*986 FILLER_0_12_107
*987 FILLER_0_12_139
*988 FILLER_0_12_147
*989 FILLER_0_12_151
*990 FILLER_0_12_167
*991 FILLER_0_12_177
*992 FILLER_0_12_185
*993 FILLER_0_12_2
*994 FILLER_0_12_203
*995 FILLER_0_12_244
*996 FILLER_0_12_247
*997 FILLER_0_12_259
*998 FILLER_0_12_303
*999 FILLER_0_12_311
*1000 FILLER_0_12_334
*1001 FILLER_0_12_34
*1002 FILLER_0_12_342
*1003 FILLER_0_12_37
*1004 FILLER_0_12_45
*1005 FILLER_0_12_49
*1006 FILLER_0_12_55
*1007 FILLER_0_12_64
*1008 FILLER_0_12_80
*1009 FILLER_0_13_131
*1010 FILLER_0_13_135
*1011 FILLER_0_13_139
*1012 FILLER_0_13_142
*1013 FILLER_0_13_146
*1014 FILLER_0_13_155
*1015 FILLER_0_13_163
*1016 FILLER_0_13_167
*1017 FILLER_0_13_183
*1018 FILLER_0_13_187
*1019 FILLER_0_13_193
*1020 FILLER_0_13_2
*1021 FILLER_0_13_209
*1022 FILLER_0_13_212
*1023 FILLER_0_13_272
*1024 FILLER_0_13_282
*1025 FILLER_0_13_286
*1026 FILLER_0_13_288
*1027 FILLER_0_13_314
*1028 FILLER_0_13_316
*1029 FILLER_0_13_32
*1030 FILLER_0_13_337
*1031 FILLER_0_13_341
*1032 FILLER_0_13_36
*1033 FILLER_0_13_68
*1034 FILLER_0_13_76
*1035 FILLER_0_13_80
*1036 FILLER_0_14_10
*1037 FILLER_0_14_111
*1038 FILLER_0_14_115
*1039 FILLER_0_14_125
*1040 FILLER_0_14_14
*1041 FILLER_0_14_141
*1042 FILLER_0_14_16
*1043 FILLER_0_14_170
*1044 FILLER_0_14_174
*1045 FILLER_0_14_177
*1046 FILLER_0_14_185
*1047 FILLER_0_14_187
*1048 FILLER_0_14_194
*1049 FILLER_0_14_198
*1050 FILLER_0_14_2
*1051 FILLER_0_14_203
*1052 FILLER_0_14_219
*1053 FILLER_0_14_222
*1054 FILLER_0_14_238
*1055 FILLER_0_14_242
*1056 FILLER_0_14_247
*1057 FILLER_0_14_25
*1058 FILLER_0_14_269
*1059 FILLER_0_14_273
*1060 FILLER_0_14_305
*1061 FILLER_0_14_313
*1062 FILLER_0_14_317
*1063 FILLER_0_14_37
*1064 FILLER_0_14_51
*1065 FILLER_0_14_83
*1066 FILLER_0_14_87
*1067 FILLER_0_15_10
*1068 FILLER_0_15_129
*1069 FILLER_0_15_133
*1070 FILLER_0_15_137
*1071 FILLER_0_15_139
*1072 FILLER_0_15_142
*1073 FILLER_0_15_171
*1074 FILLER_0_15_175
*1075 FILLER_0_15_191
*1076 FILLER_0_15_2
*1077 FILLER_0_15_207
*1078 FILLER_0_15_209
*1079 FILLER_0_15_212
*1080 FILLER_0_15_244
*1081 FILLER_0_15_248
*1082 FILLER_0_15_250
*1083 FILLER_0_15_257
*1084 FILLER_0_15_263
*1085 FILLER_0_15_269
*1086 FILLER_0_15_271
*1087 FILLER_0_15_307
*1088 FILLER_0_15_311
*1089 FILLER_0_15_46
*1090 FILLER_0_15_72
*1091 FILLER_0_15_76
*1092 FILLER_0_16_102
*1093 FILLER_0_16_104
*1094 FILLER_0_16_107
*1095 FILLER_0_16_111
*1096 FILLER_0_16_113
*1097 FILLER_0_16_126
*1098 FILLER_0_16_130
*1099 FILLER_0_16_146
*1100 FILLER_0_16_163
*1101 FILLER_0_16_167
*1102 FILLER_0_16_177
*1103 FILLER_0_16_18
*1104 FILLER_0_16_185
*1105 FILLER_0_16_199
*1106 FILLER_0_16_2
*1107 FILLER_0_16_21
*1108 FILLER_0_16_218
*1109 FILLER_0_16_233
*1110 FILLER_0_16_247
*1111 FILLER_0_16_251
*1112 FILLER_0_16_253
*1113 FILLER_0_16_267
*1114 FILLER_0_16_28
*1115 FILLER_0_16_310
*1116 FILLER_0_16_314
*1117 FILLER_0_16_32
*1118 FILLER_0_16_335
*1119 FILLER_0_16_34
*1120 FILLER_0_16_49
*1121 FILLER_0_16_58
*1122 FILLER_0_16_78
*1123 FILLER_0_16_82
*1124 FILLER_0_16_98
*1125 FILLER_0_17_126
*1126 FILLER_0_17_134
*1127 FILLER_0_17_138
*1128 FILLER_0_17_142
*1129 FILLER_0_17_154
*1130 FILLER_0_17_158
*1131 FILLER_0_17_162
*1132 FILLER_0_17_178
*1133 FILLER_0_17_186
*1134 FILLER_0_17_190
*1135 FILLER_0_17_2
*1136 FILLER_0_17_209
*1137 FILLER_0_17_218
*1138 FILLER_0_17_222
*1139 FILLER_0_17_224
*1140 FILLER_0_17_258
*1141 FILLER_0_17_262
*1142 FILLER_0_17_277
*1143 FILLER_0_17_279
*1144 FILLER_0_17_307
*1145 FILLER_0_17_311
*1146 FILLER_0_17_313
*1147 FILLER_0_17_322
*1148 FILLER_0_17_338
*1149 FILLER_0_17_34
*1150 FILLER_0_17_342
*1151 FILLER_0_17_50
*1152 FILLER_0_17_58
*1153 FILLER_0_17_66
*1154 FILLER_0_17_90
*1155 FILLER_0_17_94
*1156 FILLER_0_18_103
*1157 FILLER_0_18_107
*1158 FILLER_0_18_123
*1159 FILLER_0_18_127
*1160 FILLER_0_18_170
*1161 FILLER_0_18_174
*1162 FILLER_0_18_177
*1163 FILLER_0_18_185
*1164 FILLER_0_18_187
*1165 FILLER_0_18_210
*1166 FILLER_0_18_214
*1167 FILLER_0_18_230
*1168 FILLER_0_18_238
*1169 FILLER_0_18_242
*1170 FILLER_0_18_244
*1171 FILLER_0_18_247
*1172 FILLER_0_18_263
*1173 FILLER_0_18_267
*1174 FILLER_0_18_269
*1175 FILLER_0_18_272
*1176 FILLER_0_18_276
*1177 FILLER_0_18_302
*1178 FILLER_0_18_31
*1179 FILLER_0_18_310
*1180 FILLER_0_18_314
*1181 FILLER_0_18_329
*1182 FILLER_0_18_337
*1183 FILLER_0_18_341
*1184 FILLER_0_18_43
*1185 FILLER_0_18_59
*1186 FILLER_0_18_61
*1187 FILLER_0_18_67
*1188 FILLER_0_18_99
*1189 FILLER_0_19_104
*1190 FILLER_0_19_106
*1191 FILLER_0_19_121
*1192 FILLER_0_19_137
*1193 FILLER_0_19_139
*1194 FILLER_0_19_142
*1195 FILLER_0_19_146
*1196 FILLER_0_19_148
*1197 FILLER_0_19_154
*1198 FILLER_0_19_158
*1199 FILLER_0_19_167
*1200 FILLER_0_19_18
*1201 FILLER_0_19_199
*1202 FILLER_0_19_2
*1203 FILLER_0_19_207
*1204 FILLER_0_19_209
*1205 FILLER_0_19_212
*1206 FILLER_0_19_22
*1207 FILLER_0_19_226
*1208 FILLER_0_19_258
*1209 FILLER_0_19_266
*1210 FILLER_0_19_277
*1211 FILLER_0_19_279
*1212 FILLER_0_19_293
*1213 FILLER_0_19_297
*1214 FILLER_0_19_30
*1215 FILLER_0_19_301
*1216 FILLER_0_19_303
*1217 FILLER_0_19_333
*1218 FILLER_0_19_341
*1219 FILLER_0_19_62
*1220 FILLER_0_19_72
*1221 FILLER_0_1_127
*1222 FILLER_0_1_135
*1223 FILLER_0_1_139
*1224 FILLER_0_1_146
*1225 FILLER_0_1_148
*1226 FILLER_0_1_153
*1227 FILLER_0_1_161
*1228 FILLER_0_1_18
*1229 FILLER_0_1_191
*1230 FILLER_0_1_195
*1231 FILLER_0_1_2
*1232 FILLER_0_1_20
*1233 FILLER_0_1_203
*1234 FILLER_0_1_207
*1235 FILLER_0_1_209
*1236 FILLER_0_1_212
*1237 FILLER_0_1_243
*1238 FILLER_0_1_25
*1239 FILLER_0_1_254
*1240 FILLER_0_1_262
*1241 FILLER_0_1_266
*1242 FILLER_0_1_27
*1243 FILLER_0_1_270
*1244 FILLER_0_1_34
*1245 FILLER_0_1_72
*1246 FILLER_0_1_74
*1247 FILLER_0_20_128
*1248 FILLER_0_20_132
*1249 FILLER_0_20_136
*1250 FILLER_0_20_138
*1251 FILLER_0_20_145
*1252 FILLER_0_20_153
*1253 FILLER_0_20_157
*1254 FILLER_0_20_165
*1255 FILLER_0_20_187
*1256 FILLER_0_20_191
*1257 FILLER_0_20_193
*1258 FILLER_0_20_2
*1259 FILLER_0_20_200
*1260 FILLER_0_20_216
*1261 FILLER_0_20_220
*1262 FILLER_0_20_222
*1263 FILLER_0_20_233
*1264 FILLER_0_20_237
*1265 FILLER_0_20_247
*1266 FILLER_0_20_26
*1267 FILLER_0_20_263
*1268 FILLER_0_20_28
*1269 FILLER_0_20_291
*1270 FILLER_0_20_307
*1271 FILLER_0_20_309
*1272 FILLER_0_20_325
*1273 FILLER_0_20_341
*1274 FILLER_0_20_45
*1275 FILLER_0_20_61
*1276 FILLER_0_20_65
*1277 FILLER_0_20_67
*1278 FILLER_0_21_10
*1279 FILLER_0_21_139
*1280 FILLER_0_21_150
*1281 FILLER_0_21_154
*1282 FILLER_0_21_173
*1283 FILLER_0_21_18
*1284 FILLER_0_21_2
*1285 FILLER_0_21_208
*1286 FILLER_0_21_212
*1287 FILLER_0_21_214
*1288 FILLER_0_21_241
*1289 FILLER_0_21_245
*1290 FILLER_0_21_277
*1291 FILLER_0_21_279
*1292 FILLER_0_21_28
*1293 FILLER_0_21_282
*1294 FILLER_0_21_298
*1295 FILLER_0_21_302
*1296 FILLER_0_21_304
*1297 FILLER_0_21_311
*1298 FILLER_0_21_36
*1299 FILLER_0_21_38
*1300 FILLER_0_21_49
*1301 FILLER_0_21_57
*1302 FILLER_0_21_67
*1303 FILLER_0_21_69
*1304 FILLER_0_21_86
*1305 FILLER_0_21_94
*1306 FILLER_0_21_96
*1307 FILLER_0_22_102
*1308 FILLER_0_22_104
*1309 FILLER_0_22_107
*1310 FILLER_0_22_115
*1311 FILLER_0_22_117
*1312 FILLER_0_22_124
*1313 FILLER_0_22_158
*1314 FILLER_0_22_170
*1315 FILLER_0_22_174
*1316 FILLER_0_22_183
*1317 FILLER_0_22_187
*1318 FILLER_0_22_189
*1319 FILLER_0_22_225
*1320 FILLER_0_22_229
*1321 FILLER_0_22_238
*1322 FILLER_0_22_242
*1323 FILLER_0_22_244
*1324 FILLER_0_22_247
*1325 FILLER_0_22_255
*1326 FILLER_0_22_259
*1327 FILLER_0_22_262
*1328 FILLER_0_22_278
*1329 FILLER_0_22_282
*1330 FILLER_0_22_291
*1331 FILLER_0_22_307
*1332 FILLER_0_22_31
*1333 FILLER_0_22_317
*1334 FILLER_0_22_327
*1335 FILLER_0_22_37
*1336 FILLER_0_22_45
*1337 FILLER_0_22_49
*1338 FILLER_0_22_83
*1339 FILLER_0_22_94
*1340 FILLER_0_23_10
*1341 FILLER_0_23_102
*1342 FILLER_0_23_104
*1343 FILLER_0_23_125
*1344 FILLER_0_23_129
*1345 FILLER_0_23_137
*1346 FILLER_0_23_139
*1347 FILLER_0_23_142
*1348 FILLER_0_23_150
*1349 FILLER_0_23_2
*1350 FILLER_0_23_212
*1351 FILLER_0_23_221
*1352 FILLER_0_23_257
*1353 FILLER_0_23_26
*1354 FILLER_0_23_261
*1355 FILLER_0_23_274
*1356 FILLER_0_23_298
*1357 FILLER_0_23_30
*1358 FILLER_0_23_306
*1359 FILLER_0_23_310
*1360 FILLER_0_23_38
*1361 FILLER_0_23_42
*1362 FILLER_0_23_69
*1363 FILLER_0_23_78
*1364 FILLER_0_23_94
*1365 FILLER_0_24_101
*1366 FILLER_0_24_120
*1367 FILLER_0_24_122
*1368 FILLER_0_24_133
*1369 FILLER_0_24_137
*1370 FILLER_0_24_141
*1371 FILLER_0_24_145
*1372 FILLER_0_24_177
*1373 FILLER_0_24_2
*1374 FILLER_0_24_209
*1375 FILLER_0_24_225
*1376 FILLER_0_24_233
*1377 FILLER_0_24_242
*1378 FILLER_0_24_244
*1379 FILLER_0_24_247
*1380 FILLER_0_24_262
*1381 FILLER_0_24_266
*1382 FILLER_0_24_329
*1383 FILLER_0_24_337
*1384 FILLER_0_24_34
*1385 FILLER_0_24_341
*1386 FILLER_0_24_37
*1387 FILLER_0_24_69
*1388 FILLER_0_24_73
*1389 FILLER_0_24_85
*1390 FILLER_0_25_10
*1391 FILLER_0_25_134
*1392 FILLER_0_25_14
*1393 FILLER_0_25_168
*1394 FILLER_0_25_172
*1395 FILLER_0_25_180
*1396 FILLER_0_25_184
*1397 FILLER_0_25_195
*1398 FILLER_0_25_199
*1399 FILLER_0_25_2
*1400 FILLER_0_25_203
*1401 FILLER_0_25_207
*1402 FILLER_0_25_209
*1403 FILLER_0_25_21
*1404 FILLER_0_25_212
*1405 FILLER_0_25_220
*1406 FILLER_0_25_224
*1407 FILLER_0_25_226
*1408 FILLER_0_25_237
*1409 FILLER_0_25_245
*1410 FILLER_0_25_253
*1411 FILLER_0_25_257
*1412 FILLER_0_25_261
*1413 FILLER_0_25_278
*1414 FILLER_0_25_282
*1415 FILLER_0_25_290
*1416 FILLER_0_25_307
*1417 FILLER_0_25_315
*1418 FILLER_0_25_317
*1419 FILLER_0_25_339
*1420 FILLER_0_25_37
*1421 FILLER_0_25_45
*1422 FILLER_0_25_47
*1423 FILLER_0_25_54
*1424 FILLER_0_25_56
*1425 FILLER_0_25_65
*1426 FILLER_0_25_69
*1427 FILLER_0_25_72
*1428 FILLER_0_25_88
*1429 FILLER_0_25_96
*1430 FILLER_0_26_100
*1431 FILLER_0_26_107
*1432 FILLER_0_26_116
*1433 FILLER_0_26_126
*1434 FILLER_0_26_159
*1435 FILLER_0_26_163
*1436 FILLER_0_26_171
*1437 FILLER_0_26_177
*1438 FILLER_0_26_179
*1439 FILLER_0_26_18
*1440 FILLER_0_26_2
*1441 FILLER_0_26_209
*1442 FILLER_0_26_213
*1443 FILLER_0_26_221
*1444 FILLER_0_26_223
*1445 FILLER_0_26_229
*1446 FILLER_0_26_247
*1447 FILLER_0_26_263
*1448 FILLER_0_26_267
*1449 FILLER_0_26_270
*1450 FILLER_0_26_272
*1451 FILLER_0_26_304
*1452 FILLER_0_26_308
*1453 FILLER_0_26_311
*1454 FILLER_0_26_326
*1455 FILLER_0_26_33
*1456 FILLER_0_26_342
*1457 FILLER_0_26_43
*1458 FILLER_0_26_51
*1459 FILLER_0_26_92
*1460 FILLER_0_26_96
*1461 FILLER_0_27_136
*1462 FILLER_0_27_142
*1463 FILLER_0_27_158
*1464 FILLER_0_27_162
*1465 FILLER_0_27_178
*1466 FILLER_0_27_182
*1467 FILLER_0_27_198
*1468 FILLER_0_27_2
*1469 FILLER_0_27_206
*1470 FILLER_0_27_224
*1471 FILLER_0_27_258
*1472 FILLER_0_27_274
*1473 FILLER_0_27_278
*1474 FILLER_0_27_282
*1475 FILLER_0_27_298
*1476 FILLER_0_27_326
*1477 FILLER_0_27_342
*1478 FILLER_0_27_43
*1479 FILLER_0_27_51
*1480 FILLER_0_27_67
*1481 FILLER_0_27_69
*1482 FILLER_0_27_72
*1483 FILLER_0_28_10
*1484 FILLER_0_28_104
*1485 FILLER_0_28_136
*1486 FILLER_0_28_14
*1487 FILLER_0_28_140
*1488 FILLER_0_28_177
*1489 FILLER_0_28_185
*1490 FILLER_0_28_189
*1491 FILLER_0_28_192
*1492 FILLER_0_28_2
*1493 FILLER_0_28_208
*1494 FILLER_0_28_21
*1495 FILLER_0_28_224
*1496 FILLER_0_28_243
*1497 FILLER_0_28_247
*1498 FILLER_0_28_261
*1499 FILLER_0_28_29
*1500 FILLER_0_28_293
*1501 FILLER_0_28_309
*1502 FILLER_0_28_313
*1503 FILLER_0_28_317
*1504 FILLER_0_28_33
*1505 FILLER_0_28_333
*1506 FILLER_0_28_341
*1507 FILLER_0_28_37
*1508 FILLER_0_28_45
*1509 FILLER_0_28_49
*1510 FILLER_0_28_64
*1511 FILLER_0_28_96
*1512 FILLER_0_29_142
*1513 FILLER_0_29_146
*1514 FILLER_0_29_162
*1515 FILLER_0_29_164
*1516 FILLER_0_29_194
*1517 FILLER_0_29_198
*1518 FILLER_0_29_2
*1519 FILLER_0_29_206
*1520 FILLER_0_29_250
*1521 FILLER_0_29_254
*1522 FILLER_0_29_258
*1523 FILLER_0_29_260
*1524 FILLER_0_29_274
*1525 FILLER_0_29_278
*1526 FILLER_0_29_282
*1527 FILLER_0_29_290
*1528 FILLER_0_29_294
*1529 FILLER_0_29_296
*1530 FILLER_0_29_305
*1531 FILLER_0_29_307
*1532 FILLER_0_29_34
*1533 FILLER_0_29_42
*1534 FILLER_0_29_49
*1535 FILLER_0_29_65
*1536 FILLER_0_29_69
*1537 FILLER_0_29_72
*1538 FILLER_0_29_88
*1539 FILLER_0_2_142
*1540 FILLER_0_2_146
*1541 FILLER_0_2_162
*1542 FILLER_0_2_170
*1543 FILLER_0_2_174
*1544 FILLER_0_2_183
*1545 FILLER_0_2_187
*1546 FILLER_0_2_195
*1547 FILLER_0_2_199
*1548 FILLER_0_2_2
*1549 FILLER_0_2_229
*1550 FILLER_0_2_233
*1551 FILLER_0_2_241
*1552 FILLER_0_2_247
*1553 FILLER_0_2_277
*1554 FILLER_0_2_313
*1555 FILLER_0_2_32
*1556 FILLER_0_2_34
*1557 FILLER_0_2_342
*1558 FILLER_0_30_102
*1559 FILLER_0_30_104
*1560 FILLER_0_30_113
*1561 FILLER_0_30_117
*1562 FILLER_0_30_125
*1563 FILLER_0_30_158
*1564 FILLER_0_30_174
*1565 FILLER_0_30_177
*1566 FILLER_0_30_209
*1567 FILLER_0_30_235
*1568 FILLER_0_30_243
*1569 FILLER_0_30_259
*1570 FILLER_0_30_267
*1571 FILLER_0_30_300
*1572 FILLER_0_30_304
*1573 FILLER_0_30_31
*1574 FILLER_0_30_341
*1575 FILLER_0_30_37
*1576 FILLER_0_30_45
*1577 FILLER_0_30_49
*1578 FILLER_0_30_51
*1579 FILLER_0_30_54
*1580 FILLER_0_30_62
*1581 FILLER_0_30_78
*1582 FILLER_0_30_82
*1583 FILLER_0_30_98
*1584 FILLER_0_31_122
*1585 FILLER_0_31_124
*1586 FILLER_0_31_127
*1587 FILLER_0_31_135
*1588 FILLER_0_31_139
*1589 FILLER_0_31_142
*1590 FILLER_0_31_174
*1591 FILLER_0_31_178
*1592 FILLER_0_31_18
*1593 FILLER_0_31_188
*1594 FILLER_0_31_192
*1595 FILLER_0_31_196
*1596 FILLER_0_31_2
*1597 FILLER_0_31_20
*1598 FILLER_0_31_204
*1599 FILLER_0_31_208
*1600 FILLER_0_31_212
*1601 FILLER_0_31_220
*1602 FILLER_0_31_223
*1603 FILLER_0_31_227
*1604 FILLER_0_31_282
*1605 FILLER_0_31_290
*1606 FILLER_0_31_298
*1607 FILLER_0_31_302
*1608 FILLER_0_31_306
*1609 FILLER_0_31_314
*1610 FILLER_0_31_318
*1611 FILLER_0_31_331
*1612 FILLER_0_31_339
*1613 FILLER_0_31_52
*1614 FILLER_0_31_66
*1615 FILLER_0_31_72
*1616 FILLER_0_31_76
*1617 FILLER_0_31_78
*1618 FILLER_0_31_90
*1619 FILLER_0_32_100
*1620 FILLER_0_32_104
*1621 FILLER_0_32_118
*1622 FILLER_0_32_122
*1623 FILLER_0_32_154
*1624 FILLER_0_32_162
*1625 FILLER_0_32_166
*1626 FILLER_0_32_177