*SPEF "ieee 1481-1999"
*DESIGN "top_design_mux"
*DATE "11:11:11 Fri 11 11, 1111"
*VENDOR "OpenRCX"
*PROGRAM "Parallel Extraction"
*VERSION "1.0"
*DESIGN_FLOW "NAME_SCOPE LOCAL" "PIN_CAP NONE"
*DIVIDER /
*DELIMITER :
*BUS_DELIMITER []
*T_UNIT 1 NS
*C_UNIT 1 PF
*R_UNIT 1 OHM
*L_UNIT 1 HENRY

*NAME_MAP
*1 diego_clk
*2 diego_ena
*3 diego_io_in[0]
*4 diego_io_in[10]
*5 diego_io_in[11]
*6 diego_io_in[12]
*7 diego_io_in[13]
*8 diego_io_in[14]
*9 diego_io_in[15]
*10 diego_io_in[16]
*11 diego_io_in[17]
*12 diego_io_in[18]
*13 diego_io_in[19]
*14 diego_io_in[1]
*15 diego_io_in[20]
*16 diego_io_in[21]
*17 diego_io_in[22]
*18 diego_io_in[23]
*19 diego_io_in[24]
*20 diego_io_in[25]
*21 diego_io_in[26]
*22 diego_io_in[27]
*23 diego_io_in[28]
*24 diego_io_in[29]
*25 diego_io_in[2]
*26 diego_io_in[30]
*27 diego_io_in[31]
*28 diego_io_in[32]
*29 diego_io_in[33]
*30 diego_io_in[34]
*31 diego_io_in[35]
*32 diego_io_in[36]
*33 diego_io_in[37]
*34 diego_io_in[3]
*35 diego_io_in[4]
*36 diego_io_in[5]
*37 diego_io_in[6]
*38 diego_io_in[7]
*39 diego_io_in[8]
*40 diego_io_in[9]
*41 diego_io_oeb[0]
*42 diego_io_oeb[10]
*43 diego_io_oeb[11]
*44 diego_io_oeb[12]
*45 diego_io_oeb[13]
*46 diego_io_oeb[14]
*47 diego_io_oeb[15]
*48 diego_io_oeb[16]
*49 diego_io_oeb[17]
*50 diego_io_oeb[18]
*51 diego_io_oeb[19]
*52 diego_io_oeb[1]
*53 diego_io_oeb[20]
*54 diego_io_oeb[21]
*55 diego_io_oeb[22]
*56 diego_io_oeb[23]
*57 diego_io_oeb[24]
*58 diego_io_oeb[25]
*59 diego_io_oeb[26]
*60 diego_io_oeb[27]
*61 diego_io_oeb[28]
*62 diego_io_oeb[29]
*63 diego_io_oeb[2]
*64 diego_io_oeb[30]
*65 diego_io_oeb[31]
*66 diego_io_oeb[3]
*67 diego_io_oeb[4]
*68 diego_io_oeb[5]
*69 diego_io_oeb[6]
*70 diego_io_oeb[7]
*71 diego_io_oeb[8]
*72 diego_io_oeb[9]
*73 diego_io_out[0]
*74 diego_io_out[10]
*75 diego_io_out[11]
*76 diego_io_out[12]
*77 diego_io_out[13]
*78 diego_io_out[14]
*79 diego_io_out[15]
*80 diego_io_out[16]
*81 diego_io_out[17]
*82 diego_io_out[18]
*83 diego_io_out[19]
*84 diego_io_out[1]
*85 diego_io_out[20]
*86 diego_io_out[21]
*87 diego_io_out[22]
*88 diego_io_out[23]
*89 diego_io_out[24]
*90 diego_io_out[25]
*91 diego_io_out[26]
*92 diego_io_out[27]
*93 diego_io_out[28]
*94 diego_io_out[29]
*95 diego_io_out[2]
*96 diego_io_out[30]
*97 diego_io_out[31]
*98 diego_io_out[3]
*99 diego_io_out[4]
*100 diego_io_out[5]
*101 diego_io_out[6]
*102 diego_io_out[7]
*103 diego_io_out[8]
*104 diego_io_out[9]
*105 diego_rst
*106 i_design_reset[0]
*107 i_design_reset[1]
*108 i_design_reset[2]
*109 i_design_reset[3]
*110 i_design_reset[4]
*111 i_design_reset[5]
*112 i_design_reset[6]
*113 i_design_reset[7]
*114 i_mux_auto_reset_enb
*115 i_mux_io5_reset_enb
*116 i_mux_sel[0]
*117 i_mux_sel[1]
*118 i_mux_sel[2]
*119 i_mux_sel[3]
*120 i_mux_sys_reset_enb
*121 io_in[0]
*122 io_in[10]
*123 io_in[11]
*124 io_in[12]
*125 io_in[13]
*126 io_in[14]
*127 io_in[15]
*128 io_in[16]
*129 io_in[17]
*130 io_in[18]
*131 io_in[19]
*132 io_in[1]
*133 io_in[20]
*134 io_in[21]
*135 io_in[22]
*136 io_in[23]
*137 io_in[24]
*138 io_in[25]
*139 io_in[26]
*140 io_in[27]
*141 io_in[28]
*142 io_in[29]
*143 io_in[2]
*144 io_in[30]
*145 io_in[31]
*146 io_in[32]
*147 io_in[33]
*148 io_in[34]
*149 io_in[35]
*150 io_in[36]
*151 io_in[37]
*152 io_in[3]
*153 io_in[4]
*154 io_in[5]
*155 io_in[6]
*156 io_in[7]
*157 io_in[8]
*158 io_in[9]
*159 net713
*160 io_oeb[10]
*161 io_oeb[11]
*162 io_oeb[12]
*163 io_oeb[13]
*164 io_oeb[14]
*165 io_oeb[15]
*166 io_oeb[16]
*167 io_oeb[17]
*168 io_oeb[18]
*169 io_oeb[19]
*170 net714
*171 io_oeb[20]
*172 io_oeb[21]
*173 io_oeb[22]
*174 io_oeb[23]
*175 io_oeb[24]
*176 io_oeb[25]
*177 io_oeb[26]
*178 io_oeb[27]
*179 io_oeb[28]
*180 io_oeb[29]
*181 net715
*182 io_oeb[30]
*183 io_oeb[31]
*184 io_oeb[32]
*185 io_oeb[33]
*186 io_oeb[34]
*187 io_oeb[35]
*188 io_oeb[36]
*189 io_oeb[37]
*190 net716
*191 net717
*192 net718
*193 io_oeb[6]
*194 io_oeb[7]
*195 io_oeb[8]
*196 io_oeb[9]
*197 net719
*198 io_out[10]
*199 io_out[11]
*200 io_out[12]
*201 io_out[13]
*202 io_out[14]
*203 io_out[15]
*204 io_out[16]
*205 io_out[17]
*206 io_out[18]
*207 io_out[19]
*208 net720
*209 io_out[20]
*210 io_out[21]
*211 io_out[22]
*212 io_out[23]
*213 io_out[24]
*214 io_out[25]
*215 io_out[26]
*216 io_out[27]
*217 io_out[28]
*218 io_out[29]
*219 net721
*220 io_out[30]
*221 io_out[31]
*222 io_out[32]
*223 io_out[33]
*224 io_out[34]
*225 io_out[35]
*226 io_out[36]
*227 io_out[37]
*228 net722
*229 net723
*230 net724
*231 io_out[6]
*232 io_out[7]
*233 io_out[8]
*234 io_out[9]
*235 la_in[0]
*236 la_in[10]
*237 la_in[11]
*238 la_in[12]
*239 la_in[13]
*240 la_in[14]
*241 la_in[15]
*242 la_in[1]
*243 la_in[2]
*244 la_in[3]
*245 la_in[4]
*246 la_in[5]
*247 la_in[6]
*248 la_in[7]
*249 la_in[8]
*250 la_in[9]
*251 mux_conf_clk
*252 pawel_clk
*253 pawel_ena
*254 pawel_io_in[0]
*255 pawel_io_in[10]
*256 pawel_io_in[11]
*257 pawel_io_in[12]
*258 pawel_io_in[13]
*259 pawel_io_in[14]
*260 pawel_io_in[15]
*261 pawel_io_in[16]
*262 pawel_io_in[17]
*263 pawel_io_in[18]
*264 pawel_io_in[19]
*265 pawel_io_in[1]
*266 pawel_io_in[20]
*267 pawel_io_in[21]
*268 pawel_io_in[22]
*269 pawel_io_in[23]
*270 pawel_io_in[24]
*271 pawel_io_in[25]
*272 pawel_io_in[26]
*273 pawel_io_in[27]
*274 pawel_io_in[28]
*275 pawel_io_in[29]
*276 pawel_io_in[2]
*277 pawel_io_in[30]
*278 pawel_io_in[31]
*279 pawel_io_in[32]
*280 pawel_io_in[33]
*281 pawel_io_in[34]
*282 pawel_io_in[35]
*283 pawel_io_in[36]
*284 pawel_io_in[37]
*285 pawel_io_in[3]
*286 pawel_io_in[4]
*287 pawel_io_in[5]
*288 pawel_io_in[6]
*289 pawel_io_in[7]
*290 pawel_io_in[8]
*291 pawel_io_in[9]
*292 pawel_io_oeb[0]
*293 pawel_io_oeb[10]
*294 pawel_io_oeb[11]
*295 pawel_io_oeb[12]
*296 pawel_io_oeb[1]
*297 pawel_io_oeb[2]
*298 pawel_io_oeb[3]
*299 pawel_io_oeb[4]
*300 pawel_io_oeb[5]
*301 pawel_io_oeb[6]
*302 pawel_io_oeb[7]
*303 pawel_io_oeb[8]
*304 pawel_io_oeb[9]
*305 pawel_io_out[0]
*306 pawel_io_out[10]
*307 pawel_io_out[11]
*308 pawel_io_out[12]
*309 pawel_io_out[1]
*310 pawel_io_out[2]
*311 pawel_io_out[3]
*312 pawel_io_out[4]
*313 pawel_io_out[5]
*314 pawel_io_out[6]
*315 pawel_io_out[7]
*316 pawel_io_out[8]
*317 pawel_io_out[9]
*318 pawel_rst
*319 solos_clk
*320 solos_ena
*321 solos_gpio_ready
*322 solos_io_in[0]
*323 solos_io_in[10]
*324 solos_io_in[11]
*325 solos_io_in[12]
*326 solos_io_in[13]
*327 solos_io_in[14]
*328 solos_io_in[15]
*329 solos_io_in[16]
*330 solos_io_in[17]
*331 solos_io_in[18]
*332 solos_io_in[19]
*333 solos_io_in[1]
*334 solos_io_in[20]
*335 solos_io_in[21]
*336 solos_io_in[22]
*337 solos_io_in[23]
*338 solos_io_in[24]
*339 solos_io_in[25]
*340 solos_io_in[26]
*341 solos_io_in[27]
*342 solos_io_in[28]
*343 solos_io_in[29]
*344 solos_io_in[2]
*345 solos_io_in[30]
*346 solos_io_in[31]
*347 solos_io_in[32]
*348 solos_io_in[33]
*349 solos_io_in[34]
*350 solos_io_in[35]
*351 solos_io_in[36]
*352 solos_io_in[37]
*353 solos_io_in[3]
*354 solos_io_in[4]
*355 solos_io_in[5]
*356 solos_io_in[6]
*357 solos_io_in[7]
*358 solos_io_in[8]
*359 solos_io_in[9]
*360 solos_io_out[0]
*361 solos_io_out[10]
*362 solos_io_out[11]
*363 solos_io_out[12]
*364 solos_io_out[1]
*365 solos_io_out[2]
*366 solos_io_out[3]
*367 solos_io_out[4]
*368 solos_io_out[5]
*369 solos_io_out[6]
*370 solos_io_out[7]
*371 solos_io_out[8]
*372 solos_io_out[9]
*373 solos_rst
*374 trzf2_clk
*375 trzf2_ena
*376 trzf2_io_in[0]
*377 trzf2_io_in[10]
*378 trzf2_io_in[11]
*379 trzf2_io_in[12]
*380 trzf2_io_in[13]
*381 trzf2_io_in[14]
*382 trzf2_io_in[15]
*383 trzf2_io_in[16]
*384 trzf2_io_in[17]
*385 trzf2_io_in[18]
*386 trzf2_io_in[19]
*387 trzf2_io_in[1]
*388 trzf2_io_in[20]
*389 trzf2_io_in[21]
*390 trzf2_io_in[22]
*391 trzf2_io_in[23]
*392 trzf2_io_in[24]
*393 trzf2_io_in[25]
*394 trzf2_io_in[26]
*395 trzf2_io_in[27]
*396 trzf2_io_in[28]
*397 trzf2_io_in[29]
*398 trzf2_io_in[2]
*399 trzf2_io_in[30]
*400 trzf2_io_in[31]
*401 trzf2_io_in[32]
*402 trzf2_io_in[33]
*403 trzf2_io_in[34]
*404 trzf2_io_in[35]
*405 trzf2_io_in[36]
*406 trzf2_io_in[37]
*407 trzf2_io_in[3]
*408 trzf2_io_in[4]
*409 trzf2_io_in[5]
*410 trzf2_io_in[6]
*411 trzf2_io_in[7]
*412 trzf2_io_in[8]
*413 trzf2_io_in[9]
*414 trzf2_la_in[0]
*415 trzf2_la_in[10]
*416 trzf2_la_in[11]
*417 trzf2_la_in[12]
*418 trzf2_la_in[1]
*419 trzf2_la_in[2]
*420 trzf2_la_in[3]
*421 trzf2_la_in[4]
*422 trzf2_la_in[5]
*423 trzf2_la_in[6]
*424 trzf2_la_in[7]
*425 trzf2_la_in[8]
*426 trzf2_la_in[9]
*427 trzf2_o_gpout[0]
*428 trzf2_o_gpout[1]
*429 trzf2_o_gpout[2]
*430 trzf2_o_hsync
*431 trzf2_o_rgb[0]
*432 trzf2_o_rgb[1]
*433 trzf2_o_rgb[2]
*434 trzf2_o_rgb[3]
*435 trzf2_o_rgb[4]
*436 trzf2_o_rgb[5]
*437 trzf2_o_tex_csb
*438 trzf2_o_tex_oeb0
*439 trzf2_o_tex_out0
*440 trzf2_o_tex_sclk
*441 trzf2_o_vsync
*442 trzf2_rst
*443 trzf_clk
*444 trzf_ena
*445 trzf_io_in[0]
*446 trzf_io_in[10]
*447 trzf_io_in[11]
*448 trzf_io_in[12]
*449 trzf_io_in[13]
*450 trzf_io_in[14]
*451 trzf_io_in[15]
*452 trzf_io_in[16]
*453 trzf_io_in[17]
*454 trzf_io_in[18]
*455 trzf_io_in[19]
*456 trzf_io_in[1]
*457 trzf_io_in[20]
*458 trzf_io_in[21]
*459 trzf_io_in[22]
*460 trzf_io_in[23]
*461 trzf_io_in[24]
*462 trzf_io_in[25]
*463 trzf_io_in[26]
*464 trzf_io_in[27]
*465 trzf_io_in[28]
*466 trzf_io_in[29]
*467 trzf_io_in[2]
*468 trzf_io_in[30]
*469 trzf_io_in[31]
*470 trzf_io_in[32]
*471 trzf_io_in[33]
*472 trzf_io_in[34]
*473 trzf_io_in[35]
*474 trzf_io_in[36]
*475 trzf_io_in[37]
*476 trzf_io_in[3]
*477 trzf_io_in[4]
*478 trzf_io_in[5]
*479 trzf_io_in[6]
*480 trzf_io_in[7]
*481 trzf_io_in[8]
*482 trzf_io_in[9]
*483 trzf_la_in[0]
*484 trzf_la_in[10]
*485 trzf_la_in[11]
*486 trzf_la_in[12]
*487 trzf_la_in[1]
*488 trzf_la_in[2]
*489 trzf_la_in[3]
*490 trzf_la_in[4]
*491 trzf_la_in[5]
*492 trzf_la_in[6]
*493 trzf_la_in[7]
*494 trzf_la_in[8]
*495 trzf_la_in[9]
*496 trzf_o_gpout[0]
*497 trzf_o_gpout[1]
*498 trzf_o_gpout[2]
*499 trzf_o_hsync
*500 trzf_o_rgb[0]
*501 trzf_o_rgb[1]
*502 trzf_o_rgb[2]
*503 trzf_o_rgb[3]
*504 trzf_o_rgb[4]
*505 trzf_o_rgb[5]
*506 trzf_o_tex_csb
*507 trzf_o_tex_oeb0
*508 trzf_o_tex_out0
*509 trzf_o_tex_sclk
*510 trzf_o_vsync
*511 trzf_rst
*512 uri_clk
*513 uri_ena
*514 uri_io_in[0]
*515 uri_io_in[10]
*516 uri_io_in[11]
*517 uri_io_in[12]
*518 uri_io_in[13]
*519 uri_io_in[14]
*520 uri_io_in[15]
*521 uri_io_in[16]
*522 uri_io_in[17]
*523 uri_io_in[18]
*524 uri_io_in[19]
*525 uri_io_in[1]
*526 uri_io_in[20]
*527 uri_io_in[21]
*528 uri_io_in[22]
*529 uri_io_in[23]
*530 uri_io_in[24]
*531 uri_io_in[25]
*532 uri_io_in[26]
*533 uri_io_in[27]
*534 uri_io_in[28]
*535 uri_io_in[29]
*536 uri_io_in[2]
*537 uri_io_in[30]
*538 uri_io_in[31]
*539 uri_io_in[32]
*540 uri_io_in[33]
*541 uri_io_in[34]
*542 uri_io_in[35]
*543 uri_io_in[36]
*544 uri_io_in[37]
*545 uri_io_in[3]
*546 uri_io_in[4]
*547 uri_io_in[5]
*548 uri_io_in[6]
*549 uri_io_in[7]
*550 uri_io_in[8]
*551 uri_io_in[9]
*552 uri_io_oeb[0]
*553 uri_io_oeb[10]
*554 uri_io_oeb[11]
*555 uri_io_oeb[12]
*556 uri_io_oeb[13]
*557 uri_io_oeb[14]
*558 uri_io_oeb[15]
*559 uri_io_oeb[16]
*560 uri_io_oeb[17]
*561 uri_io_oeb[18]
*562 uri_io_oeb[1]
*563 uri_io_oeb[2]
*564 uri_io_oeb[3]
*565 uri_io_oeb[4]
*566 uri_io_oeb[5]
*567 uri_io_oeb[6]
*568 uri_io_oeb[7]
*569 uri_io_oeb[8]
*570 uri_io_oeb[9]
*571 uri_io_out[0]
*572 uri_io_out[10]
*573 uri_io_out[11]
*574 uri_io_out[12]
*575 uri_io_out[13]
*576 uri_io_out[14]
*577 uri_io_out[15]
*578 uri_io_out[16]
*579 uri_io_out[17]
*580 uri_io_out[18]
*581 uri_io_out[1]
*582 uri_io_out[2]
*583 uri_io_out[3]
*584 uri_io_out[4]
*585 uri_io_out[5]
*586 uri_io_out[6]
*587 uri_io_out[7]
*588 uri_io_out[8]
*589 uri_io_out[9]
*590 uri_rst
*592 vgasp_clk
*593 vgasp_io_in[0]
*594 vgasp_io_in[10]
*595 vgasp_io_in[11]
*596 vgasp_io_in[12]
*597 vgasp_io_in[13]
*598 vgasp_io_in[14]
*599 vgasp_io_in[15]
*600 vgasp_io_in[16]
*601 vgasp_io_in[17]
*602 vgasp_io_in[18]
*603 vgasp_io_in[19]
*604 vgasp_io_in[1]
*605 vgasp_io_in[20]
*606 vgasp_io_in[21]
*607 vgasp_io_in[22]
*608 vgasp_io_in[23]
*609 vgasp_io_in[24]
*610 vgasp_io_in[25]
*611 vgasp_io_in[26]
*612 vgasp_io_in[27]
*613 vgasp_io_in[28]
*614 vgasp_io_in[29]
*615 vgasp_io_in[2]
*616 vgasp_io_in[30]
*617 vgasp_io_in[31]
*618 vgasp_io_in[32]
*619 vgasp_io_in[33]
*620 vgasp_io_in[34]
*621 vgasp_io_in[35]
*622 vgasp_io_in[36]
*623 vgasp_io_in[37]
*624 vgasp_io_in[3]
*625 vgasp_io_in[4]
*626 vgasp_io_in[5]
*627 vgasp_io_in[6]
*628 vgasp_io_in[7]
*629 vgasp_io_in[8]
*630 vgasp_io_in[9]
*631 vgasp_rst
*632 vgasp_uio_oe[0]
*633 vgasp_uio_oe[1]
*634 vgasp_uio_oe[2]
*635 vgasp_uio_oe[3]
*636 vgasp_uio_oe[4]
*637 vgasp_uio_oe[5]
*638 vgasp_uio_oe[6]
*639 vgasp_uio_oe[7]
*640 vgasp_uio_out[0]
*641 vgasp_uio_out[1]
*642 vgasp_uio_out[2]
*643 vgasp_uio_out[3]
*644 vgasp_uio_out[4]
*645 vgasp_uio_out[5]
*646 vgasp_uio_out[6]
*647 vgasp_uio_out[7]
*648 vgasp_uo_out[0]
*649 vgasp_uo_out[1]
*650 vgasp_uo_out[2]
*651 vgasp_uo_out[3]
*652 vgasp_uo_out[4]
*653 vgasp_uo_out[5]
*654 vgasp_uo_out[6]
*655 vgasp_uo_out[7]
*657 wb_clk_i
*658 wb_rst_i
*659 _000_
*660 _001_
*661 _002_
*662 _003_
*663 _004_
*664 _005_
*665 _006_
*666 _007_
*667 _008_
*668 _009_
*669 _010_
*670 _011_
*671 _012_
*672 _013_
*673 _014_
*674 _015_
*675 _016_
*676 _017_
*677 _018_
*678 _019_
*679 _020_
*680 _021_
*681 _022_
*682 _023_
*683 _024_
*684 _025_
*685 _026_
*686 _027_
*687 _028_
*688 _029_
*689 _030_
*690 _031_
*691 _032_
*692 _033_
*693 _034_
*694 _035_
*695 _036_
*696 _037_
*697 _038_
*698 _039_
*699 _040_
*700 _041_
*701 _042_
*702 _043_
*703 _044_
*704 _045_
*705 _046_
*706 _047_
*707 _048_
*708 _049_
*709 _050_
*710 _051_
*711 _052_
*712 _053_
*713 _054_
*714 _055_
*715 _056_
*716 _057_
*717 _058_
*718 _059_
*719 _060_
*720 _061_
*721 _062_
*722 _063_
*723 _064_
*724 _065_
*725 _066_
*726 _067_
*727 _068_
*728 _069_
*729 _070_
*730 _071_
*731 _072_
*732 _073_
*733 _074_
*734 _075_
*735 _076_
*736 _077_
*737 _078_
*738 _079_
*739 _080_
*740 _081_
*741 _082_
*742 _083_
*743 _084_
*744 _085_
*745 _086_
*746 _087_
*747 _088_
*748 _089_
*749 _090_
*750 _091_
*751 _092_
*752 _093_
*753 _094_
*754 _095_
*755 _096_
*756 _097_
*757 _098_
*758 _099_
*759 _100_
*760 _101_
*761 _102_
*762 _103_
*763 _104_
*764 _105_
*765 _106_
*766 _107_
*767 _108_
*768 _109_
*769 _110_
*770 _111_
*771 _112_
*772 _113_
*773 _114_
*774 _115_
*775 _116_
*776 _117_
*777 _118_
*778 _119_
*779 _120_
*780 _121_
*781 _122_
*782 _123_
*783 _124_
*784 _125_
*785 _126_
*786 _127_
*787 _128_
*788 _129_
*789 _130_
*790 _131_
*791 _132_
*792 _133_
*793 _134_
*794 _135_
*795 _136_
*796 _137_
*797 _138_
*798 _139_
*799 _140_
*800 _141_
*801 _142_
*802 _143_
*803 _144_
*804 _145_
*805 _146_
*806 _147_
*807 _148_
*808 _149_
*809 _150_
*810 _151_
*811 _152_
*812 _153_
*813 _154_
*814 _155_
*815 _156_
*816 _157_
*817 _158_
*818 _159_
*819 _160_
*820 _161_
*821 _162_
*822 _163_
*823 _164_
*824 _165_
*825 _166_
*826 _167_
*827 _168_
*828 _169_
*829 _170_
*830 _171_
*831 _172_
*832 _173_
*833 _174_
*834 _175_
*835 _176_
*836 _177_
*837 _178_
*838 _179_
*839 _180_
*840 _181_
*841 _182_
*842 _183_
*843 _184_
*844 _185_
*845 _186_
*846 _187_
*847 _188_
*848 _189_
*849 _190_
*850 _191_
*851 _192_
*852 _193_
*853 _194_
*854 _195_
*855 _196_
*856 _197_
*857 _198_
*858 _199_
*859 _200_
*860 _201_
*861 _202_
*862 _203_
*863 _204_
*864 _205_
*865 _206_
*866 _207_
*867 _208_
*868 _209_
*869 _210_
*870 _211_
*871 _212_
*872 _213_
*873 _214_
*874 _215_
*875 _216_
*876 _217_
*877 _218_
*878 _219_
*879 _220_
*880 _221_
*881 _222_
*882 _223_
*883 _224_
*884 _225_
*885 _226_
*886 _227_
*887 _228_
*888 _229_
*889 _230_
*890 _231_
*891 _232_
*892 _233_
*893 _234_
*894 _235_
*895 _236_
*896 _237_
*897 _238_
*898 _239_
*899 _240_
*900 _241_
*901 _242_
*902 _243_
*903 _244_
*904 _245_
*905 _246_
*906 _247_
*907 _248_
*908 _249_
*909 _250_
*910 _251_
*911 _252_
*912 _253_
*913 _254_
*914 _255_
*915 _256_
*916 _257_
*917 _258_
*918 _259_
*919 _260_
*920 _261_
*921 _262_
*922 _263_
*923 _264_
*924 _265_
*925 _266_
*926 _267_
*927 _268_
*928 _269_
*929 _270_
*930 _271_
*931 _272_
*932 _273_
*933 _274_
*934 _275_
*935 _276_
*936 clknet_0_mux_conf_clk
*937 clknet_1_0__leaf_mux_conf_clk
*938 clknet_1_1__leaf_mux_conf_clk
*939 mux_sel\[0\]
*940 mux_sel\[1\]
*941 mux_sel\[2\]
*942 mux_sel\[3\]
*943 net1
*944 net10
*945 net100
*946 net101
*947 net102
*948 net103
*949 net104
*950 net105
*951 net106
*952 net107
*953 net108
*954 net109
*955 net11
*956 net110
*957 net111
*958 net112
*959 net113
*960 net114
*961 net115
*962 net116
*963 net117
*964 net118
*965 net119
*966 net12
*967 net120
*968 net121
*969 net122
*970 net123
*971 net124
*972 net125
*973 net126
*974 net127
*975 net128
*976 net129
*977 net13
*978 net130
*979 net131
*980 net132
*981 net133
*982 net134
*983 net135
*984 net136
*985 net137
*986 net138
*987 net139
*988 net14
*989 net140
*990 net141
*991 net142
*992 net143
*993 net144
*994 net145
*995 net146
*996 net147
*997 net148
*998 net149
*999 net15
*1000 net150
*1001 net151
*1002 net152
*1003 net153
*1004 net154
*1005 net155
*1006 net156
*1007 net157
*1008 net158
*1009 net159
*1010 net16
*1011 net160
*1012 net161
*1013 net162
*1014 net163
*1015 net164
*1016 net165
*1017 net166
*1018 net167
*1019 net168
*1020 net169
*1021 net17
*1022 net170
*1023 net171
*1024 net172
*1025 net173
*1026 net174
*1027 net175
*1028 net176
*1029 net177
*1030 net178
*1031 net179
*1032 net18
*1033 net180
*1034 net181
*1035 net182
*1036 net183
*1037 net184
*1038 net185
*1039 net186
*1040 net187
*1041 net188
*1042 net189
*1043 net19
*1044 net190
*1045 net191
*1046 net192
*1047 net193
*1048 net194
*1049 net195
*1050 net196
*1051 net197
*1052 net198
*1053 net199
*1054 net2
*1055 net20
*1056 net200
*1057 net201
*1058 net202
*1059 net203
*1060 net204
*1061 net205
*1062 net206
*1063 net207
*1064 net208
*1065 net209
*1066 net21
*1067 net210
*1068 net211
*1069 net212
*1070 net213
*1071 net214
*1072 net215
*1073 net216
*1074 net217
*1075 net218
*1076 net219
*1077 net22
*1078 net220
*1079 net221
*1080 net222
*1081 net223
*1082 net224
*1083 net225
*1084 net226
*1085 net227
*1086 net228
*1087 net229
*1088 net23
*1089 net230
*1090 net231
*1091 net232
*1092 net233
*1093 net234
*1094 net235
*1095 net236
*1096 net237
*1097 net238
*1098 net239
*1099 net24
*1100 net240
*1101 net241
*1102 net242
*1103 net243
*1104 net244
*1105 net245
*1106 net246
*1107 net247
*1108 net248
*1109 net249
*1110 net25
*1111 net250
*1112 net251
*1113 net252
*1114 net253
*1115 net254
*1116 net255
*1117 net256
*1118 net257
*1119 net258
*1120 net259
*1121 net26
*1122 net260
*1123 net261
*1124 net262
*1125 net263
*1126 net264
*1127 net265
*1128 net266
*1129 net267
*1130 net268
*1131 net269
*1132 net27
*1133 net270
*1134 net271
*1135 net272
*1136 net273
*1137 net274
*1138 net275
*1139 net276
*1140 net277
*1141 net278
*1142 net279
*1143 net28
*1144 net280
*1145 net281
*1146 net282
*1147 net283
*1148 net284
*1149 net285
*1150 net286
*1151 net287
*1152 net288
*1153 net289
*1154 net29
*1155 net290
*1156 net291
*1157 net292
*1158 net293
*1159 net294
*1160 net295
*1161 net296
*1162 net297
*1163 net298
*1164 net299
*1165 net3
*1166 net30
*1167 net300
*1168 net301
*1169 net302
*1170 net303
*1171 net304
*1172 net305
*1173 net306
*1174 net307
*1175 net308
*1176 net309
*1177 net31
*1178 net310
*1179 net311
*1180 net312
*1181 net313
*1182 net314
*1183 net315
*1184 net316
*1185 net317
*1186 net318
*1187 net319
*1188 net32
*1189 net320
*1190 net321
*1191 net322
*1192 net323
*1193 net324
*1194 net325
*1195 net326
*1196 net327
*1197 net328
*1198 net329
*1199 net33
*1200 net330
*1201 net331
*1202 net332
*1203 net333
*1204 net334
*1205 net335
*1206 net336
*1207 net337
*1208 net338
*1209 net339
*1210 net34
*1211 net340
*1212 net341
*1213 net342
*1214 net343
*1215 net344
*1216 net345
*1217 net346
*1218 net347
*1219 net348
*1220 net349
*1221 net35
*1222 net350
*1223 net351
*1224 net352
*1225 net353
*1226 net354
*1227 net355
*1228 net356
*1229 net357
*1230 net358
*1231 net359
*1232 net36
*1233 net360
*1234 net361
*1235 net362
*1236 net363
*1237 net364
*1238 net365
*1239 net366
*1240 net367
*1241 net368
*1242 net369
*1243 net37
*1244 net370
*1245 net371
*1246 net372
*1247 net373
*1248 net374
*1249 net375
*1250 net376
*1251 net377
*1252 net378
*1253 net379
*1254 net38
*1255 net380
*1256 net381
*1257 net382
*1258 net383
*1259 net384
*1260 net385
*1261 net386
*1262 net387
*1263 net388
*1264 net389
*1265 net39
*1266 net390
*1267 net391
*1268 net392
*1269 net393
*1270 net394
*1271 net395
*1272 net396
*1273 net397
*1274 net398
*1275 net399
*1276 net4
*1277 net40
*1278 net400
*1279 net401
*1280 net402
*1281 net403
*1282 net404
*1283 net405
*1284 net406
*1285 net407
*1286 net408
*1287 net409
*1288 net41
*1289 net410
*1290 net411
*1291 net412
*1292 net413
*1293 net414
*1294 net415
*1295 net416
*1296 net417
*1297 net418
*1298 net419
*1299 net42
*1300 net420
*1301 net421
*1302 net422
*1303 net423
*1304 net424
*1305 net425
*1306 net426
*1307 net427
*1308 net428
*1309 net429
*1310 net43
*1311 net430
*1312 net431
*1313 net432
*1314 net433
*1315 net434
*1316 net435
*1317 net436
*1318 net437
*1319 net438
*1320 net439
*1321 net44
*1322 net440
*1323 net441
*1324 net442
*1325 net443
*1326 net444
*1327 net445
*1328 net446
*1329 net447
*1330 net448
*1331 net449
*1332 net45
*1333 net450
*1334 net451
*1335 net452
*1336 net453
*1337 net454
*1338 net455
*1339 net456
*1340 net457
*1341 net458
*1342 net459
*1343 net46
*1344 net460
*1345 net461
*1346 net462
*1347 net463
*1348 net464
*1349 net465
*1350 net466
*1351 net467
*1352 net468
*1353 net469
*1354 net47
*1355 net470
*1356 net471
*1357 net472
*1358 net473
*1359 net474
*1360 net475
*1361 net476
*1362 net477
*1363 net478
*1364 net479
*1365 net48
*1366 net480
*1367 net481
*1368 net482
*1369 net483
*1370 net484
*1371 net485
*1372 net486
*1373 net487
*1374 net488
*1375 net489
*1376 net49
*1377 net490
*1378 net491
*1379 net492
*1380 net493
*1381 net494
*1382 net495
*1383 net496
*1384 net497
*1385 net498
*1386 net499
*1387 net5
*1388 net50
*1389 net500
*1390 net501
*1391 net502
*1392 net503
*1393 net504
*1394 net505
*1395 net506
*1396 net507
*1397 net508
*1398 net509
*1399 net51
*1400 net510
*1401 net511
*1402 net512
*1403 net513
*1404 net514
*1405 net515
*1406 net516
*1407 net517
*1408 net518
*1409 net519
*1410 net52
*1411 net520
*1412 net521
*1413 net522
*1414 net523
*1415 net524
*1416 net525
*1417 net526
*1418 net527
*1419 net528
*1420 net529
*1421 net53
*1422 net530
*1423 net531
*1424 net532
*1425 net533
*1426 net534
*1427 net535
*1428 net536
*1429 net537
*1430 net538
*1431 net539
*1432 net54
*1433 net540
*1434 net541
*1435 net542
*1436 net543
*1437 net544
*1438 net545
*1439 net546
*1440 net547
*1441 net548
*1442 net549
*1443 net55
*1444 net550
*1445 net551
*1446 net552
*1447 net553
*1448 net554
*1449 net555
*1450 net556
*1451 net557
*1452 net558
*1453 net559
*1454 net56
*1455 net560
*1456 net561
*1457 net562
*1458 net563
*1459 net564
*1460 net565
*1461 net566
*1462 net567
*1463 net568
*1464 net569
*1465 net57
*1466 net570
*1467 net571
*1468 net572
*1469 net573
*1470 net574
*1471 net575
*1472 net576
*1473 net577
*1474 net578
*1475 net579
*1476 net58
*1477 net580
*1478 net581
*1479 net582
*1480 net583
*1481 net584
*1482 net585
*1483 net586
*1484 net587
*1485 net588
*1486 net589
*1487 net59
*1488 net590
*1489 net591
*1490 net592
*1491 net593
*1492 net594
*1493 net595
*1494 net596
*1495 net597
*1496 net598
*1497 net599
*1498 net6
*1499 net60
*1500 net600
*1501 net601
*1502 net602
*1503 net603
*1504 net604
*1505 net605
*1506 net606
*1507 net607
*1508 net608
*1509 net609
*1510 net61
*1511 net610
*1512 net611
*1513 net612
*1514 net613
*1515 net614
*1516 net615
*1517 net616
*1518 net617
*1519 net618
*1520 net619
*1521 net62
*1522 net620
*1523 net621
*1524 net622
*1525 net623
*1526 net624
*1527 net625
*1528 net626
*1529 net627
*1530 net628
*1531 net629
*1532 net63
*1533 net630
*1534 net631
*1535 net632
*1536 net633
*1537 net634
*1538 net635
*1539 net636
*1540 net637
*1541 net638
*1542 net639
*1543 net64
*1544 net640
*1545 net641
*1546 net642
*1547 net643
*1548 net644
*1549 net645
*1550 net646
*1551 net647
*1552 net648
*1553 net649
*1554 net65
*1555 net650
*1556 net651
*1557 net652
*1558 net653
*1559 net654
*1560 net655
*1561 net656
*1562 net657
*1563 net658
*1564 net659
*1565 net66
*1566 net660
*1567 net661
*1568 net662
*1569 net663
*1570 net664
*1571 net665
*1572 net666
*1573 net667
*1574 net668
*1575 net669
*1576 net67
*1577 net670
*1578 net671
*1579 net672
*1580 net673
*1581 net674
*1582 net675
*1583 net676
*1584 net677
*1585 net678
*1586 net679
*1587 net68
*1588 net680
*1589 net681
*1590 net682
*1591 net683
*1592 net684
*1593 net685
*1594 net686
*1595 net687
*1596 net688
*1597 net689
*1598 net69
*1599 net690
*1600 net691
*1601 net692
*1602 net693
*1603 net694
*1604 net695
*1605 net696
*1606 net697
*1607 net698
*1608 net699
*1609 net7
*1610 net70
*1611 net700
*1612 net701
*1613 net702
*1614 net703
*1615 net704
*1616 net705
*1617 net706
*1618 net707
*1619 net708
*1620 net709
*1621 net71
*1622 net710
*1623 net711
*1624 net712
*1625 net72
*1626 net725
*1627 net726
*1628 net727
*1629 net728
*1630 net729
*1631 net73
*1632 net730
*1633 net731
*1634 net732
*1635 net733
*1636 net734
*1637 net735
*1638 net736
*1639 net737
*1640 net738
*1641 net739
*1642 net74
*1643 net740
*1644 net741
*1645 net742
*1646 net743
*1647 net744
*1648 net745
*1649 net746
*1650 net747
*1651 net748
*1652 net749
*1653 net75
*1654 net750
*1655 net751
*1656 net752
*1657 net753
*1658 net754
*1659 net755
*1660 net756
*1661 net757
*1662 net758
*1663 net759
*1664 net76
*1665 net760
*1666 net761
*1667 net762
*1668 net763
*1669 net764
*1670 net765
*1671 net766
*1672 net767
*1673 net768
*1674 net769
*1675 net77
*1676 net770
*1677 net78
*1678 net79
*1679 net8
*1680 net80
*1681 net81
*1682 net82
*1683 net83
*1684 net84
*1685 net85
*1686 net86
*1687 net87
*1688 net88
*1689 net89
*1690 net9
*1691 net90
*1692 net91
*1693 net92
*1694 net93
*1695 net94
*1696 net95
*1697 net96
*1698 net97
*1699 net98
*1700 net99
*1701 r_mux_auto_reset_enb\[0\]
*1702 r_mux_auto_reset_enb\[1\]
*1703 r_mux_io5_reset_enb\[0\]
*1704 r_mux_io5_reset_enb\[1\]
*1705 r_mux_sel0\[0\]
*1706 r_mux_sel1\[0\]
*1707 r_mux_sel2\[0\]
*1708 r_mux_sel3\[0\]
*1709 r_mux_sys_reset_enb\[0\]
*1710 r_mux_sys_reset_enb\[1\]
*1711 ANTENNA_1
*1712 ANTENNA_10
*1713 ANTENNA_11
*1714 ANTENNA_12
*1715 ANTENNA_13
*1716 ANTENNA_14
*1717 ANTENNA_15
*1718 ANTENNA_16
*1719 ANTENNA_17
*1720 ANTENNA_18
*1721 ANTENNA_19
*1722 ANTENNA_2
*1723 ANTENNA_20
*1724 ANTENNA_21
*1725 ANTENNA_22
*1726 ANTENNA_23
*1727 ANTENNA_24
*1728 ANTENNA_25
*1729 ANTENNA_26
*1730 ANTENNA_27
*1731 ANTENNA_28
*1732 ANTENNA_29
*1733 ANTENNA_3
*1734 ANTENNA_30
*1735 ANTENNA_31
*1736 ANTENNA_32
*1737 ANTENNA_33
*1738 ANTENNA_34
*1739 ANTENNA_35
*1740 ANTENNA_36
*1741 ANTENNA_37
*1742 ANTENNA_38
*1743 ANTENNA_39
*1744 ANTENNA_4
*1745 ANTENNA_40
*1746 ANTENNA_41
*1747 ANTENNA_42
*1748 ANTENNA_43
*1749 ANTENNA_44
*1750 ANTENNA_45
*1751 ANTENNA_5
*1752 ANTENNA_6
*1753 ANTENNA_7
*1754 ANTENNA_8
*1755 ANTENNA_9
*1756 ANTENNA__283__I
*1757 ANTENNA__288__A1
*1758 ANTENNA__291__I
*1759 ANTENNA__298__I
*1760 ANTENNA__303__I
*1761 ANTENNA__305__I
*1762 ANTENNA__308__A2
*1763 ANTENNA__309__I
*1764 ANTENNA__310__I
*1765 ANTENNA__311__A1
*1766 ANTENNA__311__A2
*1767 ANTENNA__312__I
*1768 ANTENNA__313__I
*1769 ANTENNA__315__I
*1770 ANTENNA__316__A2
*1771 ANTENNA__317__I
*1772 ANTENNA__318__A2
*1773 ANTENNA__319__I
*1774 ANTENNA__323__A1
*1775 ANTENNA__332__A1
*1776 ANTENNA__332__A3
*1777 ANTENNA__333__A1
*1778 ANTENNA__333__A2
*1779 ANTENNA__334__A1
*1780 ANTENNA__335__A1
*1781 ANTENNA__336__A1
*1782 ANTENNA__336__A2
*1783 ANTENNA__338__I
*1784 ANTENNA__341__I
*1785 ANTENNA__343__I
*1786 ANTENNA__345__A1
*1787 ANTENNA__345__A2
*1788 ANTENNA__345__B2
*1789 ANTENNA__345__C1
*1790 ANTENNA__345__C2
*1791 ANTENNA__347__I
*1792 ANTENNA__348__I
*1793 ANTENNA__349__A1
*1794 ANTENNA__349__A2
*1795 ANTENNA__349__B1
*1796 ANTENNA__349__B2
*1797 ANTENNA__349__C1
*1798 ANTENNA__349__C2
*1799 ANTENNA__351__I
*1800 ANTENNA__352__A1
*1801 ANTENNA__352__A2
*1802 ANTENNA__352__B1
*1803 ANTENNA__352__B2
*1804 ANTENNA__353__A1
*1805 ANTENNA__353__A4
*1806 ANTENNA__354__I
*1807 ANTENNA__356__I
*1808 ANTENNA__358__A1
*1809 ANTENNA__358__A2
*1810 ANTENNA__358__B2
*1811 ANTENNA__358__C1
*1812 ANTENNA__358__C2
*1813 ANTENNA__361__I
*1814 ANTENNA__362__A1
*1815 ANTENNA__362__A2
*1816 ANTENNA__362__B2
*1817 ANTENNA__362__C1
*1818 ANTENNA__362__C2
*1819 ANTENNA__363__A1
*1820 ANTENNA__363__A2
*1821 ANTENNA__363__B1
*1822 ANTENNA__363__B2
*1823 ANTENNA__364__A4
*1824 ANTENNA__365__A1
*1825 ANTENNA__365__A2
*1826 ANTENNA__365__B2
*1827 ANTENNA__365__C1
*1828 ANTENNA__365__C2
*1829 ANTENNA__366__I
*1830 ANTENNA__367__A1
*1831 ANTENNA__367__A2
*1832 ANTENNA__367__B2
*1833 ANTENNA__367__C2
*1834 ANTENNA__368__I
*1835 ANTENNA__369__A1
*1836 ANTENNA__369__A2
*1837 ANTENNA__369__B2
*1838 ANTENNA__370__A4
*1839 ANTENNA__373__A1
*1840 ANTENNA__373__A2
*1841 ANTENNA__373__B2
*1842 ANTENNA__373__C1
*1843 ANTENNA__373__C2
*1844 ANTENNA__374__A1
*1845 ANTENNA__374__A2
*1846 ANTENNA__374__B2
*1847 ANTENNA__374__C2
*1848 ANTENNA__375__A1
*1849 ANTENNA__375__A2
*1850 ANTENNA__375__B2
*1851 ANTENNA__376__A4
*1852 ANTENNA__377__A1
*1853 ANTENNA__377__A2
*1854 ANTENNA__377__B2
*1855 ANTENNA__377__C1
*1856 ANTENNA__377__C2
*1857 ANTENNA__378__A1
*1858 ANTENNA__378__A2
*1859 ANTENNA__378__B2
*1860 ANTENNA__378__C2
*1861 ANTENNA__379__I
*1862 ANTENNA__380__A1
*1863 ANTENNA__380__A2
*1864 ANTENNA__380__B2
*1865 ANTENNA__381__A4
*1866 ANTENNA__382__I
*1867 ANTENNA__383__A1
*1868 ANTENNA__383__A2
*1869 ANTENNA__383__B2
*1870 ANTENNA__383__C1
*1871 ANTENNA__383__C2
*1872 ANTENNA__385__A1
*1873 ANTENNA__385__A2
*1874 ANTENNA__385__B2
*1875 ANTENNA__385__C2
*1876 ANTENNA__386__A1
*1877 ANTENNA__386__A2
*1878 ANTENNA__386__B2
*1879 ANTENNA__387__A4
*1880 ANTENNA__388__A1
*1881 ANTENNA__388__A2
*1882 ANTENNA__388__B2
*1883 ANTENNA__388__C1
*1884 ANTENNA__388__C2
*1885 ANTENNA__389__A1
*1886 ANTENNA__389__A2
*1887 ANTENNA__389__B2
*1888 ANTENNA__389__C1
*1889 ANTENNA__389__C2
*1890 ANTENNA__390__I
*1891 ANTENNA__391__A1
*1892 ANTENNA__391__A2
*1893 ANTENNA__391__B1
*1894 ANTENNA__391__B2
*1895 ANTENNA__392__A4
*1896 ANTENNA__394__I
*1897 ANTENNA__395__A1