*SPEF "ieee 1481-1999"
*DESIGN "top_design_mux"
*DATE "11:11:11 Fri 11 11, 1111"
*VENDOR "OpenRCX"
*PROGRAM "Parallel Extraction"
*VERSION "1.0"
*DESIGN_FLOW "NAME_SCOPE LOCAL" "PIN_CAP NONE"
*DIVIDER /
*DELIMITER :
*BUS_DELIMITER []
*T_UNIT 1 NS
*C_UNIT 1 PF
*R_UNIT 1 OHM
*L_UNIT 1 HENRY

*NAME_MAP
*1 diego_clk
*2 diego_ena
*3 diego_io_in[0]
*4 diego_io_in[10]
*5 diego_io_in[11]
*6 diego_io_in[12]
*7 diego_io_in[13]
*8 diego_io_in[14]
*9 diego_io_in[15]
*10 diego_io_in[16]
*11 diego_io_in[17]
*12 diego_io_in[18]
*13 diego_io_in[19]
*14 diego_io_in[1]
*15 diego_io_in[20]
*16 diego_io_in[21]
*17 diego_io_in[22]
*18 diego_io_in[23]
*19 diego_io_in[24]
*20 diego_io_in[25]
*21 diego_io_in[26]
*22 diego_io_in[27]
*23 diego_io_in[28]
*24 diego_io_in[29]
*25 diego_io_in[2]
*26 diego_io_in[30]
*27 diego_io_in[31]
*28 diego_io_in[32]
*29 diego_io_in[33]
*30 diego_io_in[34]
*31 diego_io_in[35]
*32 diego_io_in[36]
*33 diego_io_in[37]
*34 diego_io_in[3]
*35 diego_io_in[4]
*36 diego_io_in[5]
*37 diego_io_in[6]
*38 diego_io_in[7]
*39 diego_io_in[8]
*40 diego_io_in[9]
*41 diego_io_oeb[0]
*42 diego_io_oeb[10]
*43 diego_io_oeb[11]
*44 diego_io_oeb[12]
*45 diego_io_oeb[13]
*46 diego_io_oeb[14]
*47 diego_io_oeb[15]
*48 diego_io_oeb[16]
*49 diego_io_oeb[17]
*50 diego_io_oeb[18]
*51 diego_io_oeb[19]
*52 diego_io_oeb[1]
*53 diego_io_oeb[20]
*54 diego_io_oeb[21]
*55 diego_io_oeb[22]
*56 diego_io_oeb[23]
*57 diego_io_oeb[24]
*58 diego_io_oeb[25]
*59 diego_io_oeb[26]
*60 diego_io_oeb[27]
*61 diego_io_oeb[28]
*62 diego_io_oeb[29]
*63 diego_io_oeb[2]
*64 diego_io_oeb[30]
*65 diego_io_oeb[31]
*66 diego_io_oeb[3]
*67 diego_io_oeb[4]
*68 diego_io_oeb[5]
*69 diego_io_oeb[6]
*70 diego_io_oeb[7]
*71 diego_io_oeb[8]
*72 diego_io_oeb[9]
*73 diego_io_out[0]
*74 diego_io_out[10]
*75 diego_io_out[11]
*76 diego_io_out[12]
*77 diego_io_out[13]
*78 diego_io_out[14]
*79 diego_io_out[15]
*80 diego_io_out[16]
*81 diego_io_out[17]
*82 diego_io_out[18]
*83 diego_io_out[19]
*84 diego_io_out[1]
*85 diego_io_out[20]
*86 diego_io_out[21]
*87 diego_io_out[22]
*88 diego_io_out[23]
*89 diego_io_out[24]
*90 diego_io_out[25]
*91 diego_io_out[26]
*92 diego_io_out[27]
*93 diego_io_out[28]
*94 diego_io_out[29]
*95 diego_io_out[2]
*96 diego_io_out[30]
*97 diego_io_out[31]
*98 diego_io_out[3]
*99 diego_io_out[4]
*100 diego_io_out[5]
*101 diego_io_out[6]
*102 diego_io_out[7]
*103 diego_io_out[8]
*104 diego_io_out[9]
*105 diego_rst
*106 i_design_reset[0]
*107 i_design_reset[1]
*108 i_design_reset[2]
*109 i_design_reset[3]
*110 i_design_reset[4]
*111 i_design_reset[5]
*112 i_design_reset[6]
*113 i_design_reset[7]
*114 i_mux_auto_reset_enb
*115 i_mux_io5_reset_enb
*116 i_mux_sel[0]
*117 i_mux_sel[1]
*118 i_mux_sel[2]
*119 i_mux_sel[3]
*120 i_mux_sys_reset_enb
*121 io_in[0]
*122 io_in[10]
*123 io_in[11]
*124 io_in[12]
*125 io_in[13]
*126 io_in[14]
*127 io_in[15]
*128 io_in[16]
*129 io_in[17]
*130 io_in[18]
*131 io_in[19]
*132 io_in[1]
*133 io_in[20]
*134 io_in[21]
*135 io_in[22]
*136 io_in[23]
*137 io_in[24]
*138 io_in[25]
*139 io_in[26]
*140 io_in[27]
*141 io_in[28]
*142 io_in[29]
*143 io_in[2]
*144 io_in[30]
*145 io_in[31]
*146 io_in[32]
*147 io_in[33]
*148 io_in[34]
*149 io_in[35]
*150 io_in[36]
*151 io_in[37]
*152 io_in[3]
*153 io_in[4]
*154 io_in[5]
*155 io_in[6]
*156 io_in[7]
*157 io_in[8]
*158 io_in[9]
*159 net734
*160 io_oeb[10]
*161 io_oeb[11]
*162 io_oeb[12]
*163 io_oeb[13]
*164 io_oeb[14]
*165 io_oeb[15]
*166 io_oeb[16]
*167 io_oeb[17]
*168 io_oeb[18]
*169 io_oeb[19]
*170 net735
*171 io_oeb[20]
*172 io_oeb[21]
*173 io_oeb[22]
*174 io_oeb[23]
*175 io_oeb[24]
*176 io_oeb[25]
*177 io_oeb[26]
*178 io_oeb[27]
*179 io_oeb[28]
*180 io_oeb[29]
*181 net736
*182 io_oeb[30]
*183 io_oeb[31]
*184 io_oeb[32]
*185 io_oeb[33]
*186 io_oeb[34]
*187 io_oeb[35]
*188 io_oeb[36]
*189 io_oeb[37]
*190 net737
*191 net738
*192 net739
*193 io_oeb[6]
*194 io_oeb[7]
*195 io_oeb[8]
*196 io_oeb[9]
*197 net740
*198 io_out[10]
*199 io_out[11]
*200 io_out[12]
*201 io_out[13]
*202 io_out[14]
*203 io_out[15]
*204 io_out[16]
*205 io_out[17]
*206 io_out[18]
*207 io_out[19]
*208 net741
*209 io_out[20]
*210 io_out[21]
*211 io_out[22]
*212 io_out[23]
*213 io_out[24]
*214 io_out[25]
*215 io_out[26]
*216 io_out[27]
*217 io_out[28]
*218 io_out[29]
*219 net742
*220 io_out[30]
*221 io_out[31]
*222 io_out[32]
*223 io_out[33]
*224 io_out[34]
*225 io_out[35]
*226 io_out[36]
*227 io_out[37]
*228 net743
*229 net744
*230 net745
*231 io_out[6]
*232 io_out[7]
*233 io_out[8]
*234 io_out[9]
*235 la_in[0]
*236 la_in[10]
*237 la_in[11]
*238 la_in[12]
*239 la_in[13]
*240 la_in[14]
*241 la_in[15]
*242 la_in[1]
*243 la_in[2]
*244 la_in[3]
*245 la_in[4]
*246 la_in[5]
*247 la_in[6]
*248 la_in[7]
*249 la_in[8]
*250 la_in[9]
*251 mux_conf_clk
*252 pawel_clk
*253 pawel_ena
*254 pawel_io_in[0]
*255 pawel_io_in[10]
*256 pawel_io_in[11]
*257 pawel_io_in[12]
*258 pawel_io_in[13]
*259 pawel_io_in[14]
*260 pawel_io_in[15]
*261 pawel_io_in[16]
*262 pawel_io_in[17]
*263 pawel_io_in[18]
*264 pawel_io_in[19]
*265 pawel_io_in[1]
*266 pawel_io_in[20]
*267 pawel_io_in[21]
*268 pawel_io_in[22]
*269 pawel_io_in[23]
*270 pawel_io_in[24]
*271 pawel_io_in[25]
*272 pawel_io_in[26]
*273 pawel_io_in[27]
*274 pawel_io_in[28]
*275 pawel_io_in[29]
*276 pawel_io_in[2]
*277 pawel_io_in[30]
*278 pawel_io_in[31]
*279 pawel_io_in[32]
*280 pawel_io_in[33]
*281 pawel_io_in[34]
*282 pawel_io_in[35]
*283 pawel_io_in[36]
*284 pawel_io_in[37]
*285 pawel_io_in[3]
*286 pawel_io_in[4]
*287 pawel_io_in[5]
*288 pawel_io_in[6]
*289 pawel_io_in[7]
*290 pawel_io_in[8]
*291 pawel_io_in[9]
*292 pawel_io_oeb[0]
*293 pawel_io_oeb[10]
*294 pawel_io_oeb[11]
*295 pawel_io_oeb[12]
*296 pawel_io_oeb[1]
*297 pawel_io_oeb[2]
*298 pawel_io_oeb[3]
*299 pawel_io_oeb[4]
*300 pawel_io_oeb[5]
*301 pawel_io_oeb[6]
*302 pawel_io_oeb[7]
*303 pawel_io_oeb[8]
*304 pawel_io_oeb[9]
*305 pawel_io_out[0]
*306 pawel_io_out[10]
*307 pawel_io_out[11]
*308 pawel_io_out[12]
*309 pawel_io_out[1]
*310 pawel_io_out[2]
*311 pawel_io_out[3]
*312 pawel_io_out[4]
*313 pawel_io_out[5]
*314 pawel_io_out[6]
*315 pawel_io_out[7]
*316 pawel_io_out[8]
*317 pawel_io_out[9]
*318 pawel_la_in[0]
*319 pawel_la_in[10]
*320 pawel_la_in[11]
*321 pawel_la_in[12]
*322 pawel_la_in[13]
*323 pawel_la_in[14]
*324 pawel_la_in[15]
*325 pawel_la_in[1]
*326 pawel_la_in[2]
*327 pawel_la_in[3]
*328 pawel_la_in[4]
*329 pawel_la_in[5]
*330 pawel_la_in[6]
*331 pawel_la_in[7]
*332 pawel_la_in[8]
*333 pawel_la_in[9]
*334 pawel_rst
*335 solos_clk
*336 solos_ena
*337 solos_gpio_ready
*338 solos_io_in[0]
*339 solos_io_in[10]
*340 solos_io_in[11]
*341 solos_io_in[12]
*342 solos_io_in[13]
*343 solos_io_in[14]
*344 solos_io_in[15]
*345 solos_io_in[16]
*346 solos_io_in[17]
*347 solos_io_in[18]
*348 solos_io_in[19]
*349 solos_io_in[1]
*350 solos_io_in[20]
*351 solos_io_in[21]
*352 solos_io_in[22]
*353 solos_io_in[23]
*354 solos_io_in[24]
*355 solos_io_in[25]
*356 solos_io_in[26]
*357 solos_io_in[27]
*358 solos_io_in[28]
*359 solos_io_in[29]
*360 solos_io_in[2]
*361 solos_io_in[30]
*362 solos_io_in[31]
*363 solos_io_in[32]
*364 solos_io_in[33]
*365 solos_io_in[34]
*366 solos_io_in[35]
*367 solos_io_in[36]
*368 solos_io_in[37]
*369 solos_io_in[3]
*370 solos_io_in[4]
*371 solos_io_in[5]
*372 solos_io_in[6]
*373 solos_io_in[7]
*374 solos_io_in[8]
*375 solos_io_in[9]
*376 solos_io_out[0]
*377 solos_io_out[10]
*378 solos_io_out[11]
*379 solos_io_out[12]
*380 solos_io_out[1]
*381 solos_io_out[2]
*382 solos_io_out[3]
*383 solos_io_out[4]
*384 solos_io_out[5]
*385 solos_io_out[6]
*386 solos_io_out[7]
*387 solos_io_out[8]
*388 solos_io_out[9]
*389 solos_rst
*390 trzf2_clk
*391 trzf2_ena
*392 trzf2_io_in[0]
*393 trzf2_io_in[10]
*394 trzf2_io_in[11]
*395 trzf2_io_in[12]
*396 trzf2_io_in[13]
*397 trzf2_io_in[14]
*398 trzf2_io_in[15]
*399 trzf2_io_in[16]
*400 trzf2_io_in[17]
*401 trzf2_io_in[18]
*402 trzf2_io_in[19]
*403 trzf2_io_in[1]
*404 trzf2_io_in[20]
*405 trzf2_io_in[21]
*406 trzf2_io_in[22]
*407 trzf2_io_in[23]
*408 trzf2_io_in[24]
*409 trzf2_io_in[25]
*410 trzf2_io_in[26]
*411 trzf2_io_in[27]
*412 trzf2_io_in[28]
*413 trzf2_io_in[29]
*414 trzf2_io_in[2]
*415 trzf2_io_in[30]
*416 trzf2_io_in[31]
*417 trzf2_io_in[32]
*418 trzf2_io_in[33]
*419 trzf2_io_in[34]
*420 trzf2_io_in[35]
*421 trzf2_io_in[36]
*422 trzf2_io_in[37]
*423 trzf2_io_in[3]
*424 trzf2_io_in[4]
*425 trzf2_io_in[5]
*426 trzf2_io_in[6]
*427 trzf2_io_in[7]
*428 trzf2_io_in[8]
*429 trzf2_io_in[9]
*430 trzf2_la_in[0]
*431 trzf2_la_in[10]
*432 trzf2_la_in[11]
*433 trzf2_la_in[12]
*434 trzf2_la_in[1]
*435 trzf2_la_in[2]
*436 trzf2_la_in[3]
*437 trzf2_la_in[4]
*438 trzf2_la_in[5]
*439 trzf2_la_in[6]
*440 trzf2_la_in[7]
*441 trzf2_la_in[8]
*442 trzf2_la_in[9]
*443 trzf2_o_gpout[0]
*444 trzf2_o_gpout[1]
*445 trzf2_o_gpout[2]
*446 trzf2_o_hsync
*447 trzf2_o_rgb[0]
*448 trzf2_o_rgb[1]
*449 trzf2_o_rgb[2]
*450 trzf2_o_rgb[3]
*451 trzf2_o_rgb[4]
*452 trzf2_o_rgb[5]
*453 trzf2_o_tex_csb
*454 trzf2_o_tex_oeb0
*455 trzf2_o_tex_out0
*456 trzf2_o_tex_sclk
*457 trzf2_o_vsync
*458 trzf2_rst
*459 trzf_clk
*460 trzf_ena
*461 trzf_io_in[0]
*462 trzf_io_in[10]
*463 trzf_io_in[11]
*464 trzf_io_in[12]
*465 trzf_io_in[13]
*466 trzf_io_in[14]
*467 trzf_io_in[15]
*468 trzf_io_in[16]
*469 trzf_io_in[17]
*470 trzf_io_in[18]
*471 trzf_io_in[19]
*472 trzf_io_in[1]
*473 trzf_io_in[20]
*474 trzf_io_in[21]
*475 trzf_io_in[22]
*476 trzf_io_in[23]
*477 trzf_io_in[24]
*478 trzf_io_in[25]
*479 trzf_io_in[26]
*480 trzf_io_in[27]
*481 trzf_io_in[28]
*482 trzf_io_in[29]
*483 trzf_io_in[2]
*484 trzf_io_in[30]
*485 trzf_io_in[31]
*486 trzf_io_in[32]
*487 trzf_io_in[33]
*488 trzf_io_in[34]
*489 trzf_io_in[35]
*490 trzf_io_in[36]
*491 trzf_io_in[37]
*492 trzf_io_in[3]
*493 trzf_io_in[4]
*494 trzf_io_in[5]
*495 trzf_io_in[6]
*496 trzf_io_in[7]
*497 trzf_io_in[8]
*498 trzf_io_in[9]
*499 trzf_la_in[0]
*500 trzf_la_in[10]
*501 trzf_la_in[11]
*502 trzf_la_in[12]
*503 trzf_la_in[1]
*504 trzf_la_in[2]
*505 trzf_la_in[3]
*506 trzf_la_in[4]
*507 trzf_la_in[5]
*508 trzf_la_in[6]
*509 trzf_la_in[7]
*510 trzf_la_in[8]
*511 trzf_la_in[9]
*512 trzf_o_gpout[0]
*513 trzf_o_gpout[1]
*514 trzf_o_gpout[2]
*515 trzf_o_hsync
*516 trzf_o_rgb[0]
*517 trzf_o_rgb[1]
*518 trzf_o_rgb[2]
*519 trzf_o_rgb[3]
*520 trzf_o_rgb[4]
*521 trzf_o_rgb[5]
*522 trzf_o_tex_csb
*523 trzf_o_tex_oeb0
*524 trzf_o_tex_out0
*525 trzf_o_tex_sclk
*526 trzf_o_vsync
*527 trzf_rst
*528 uri_clk
*529 uri_ena
*530 uri_io_in[0]
*531 uri_io_in[10]
*532 uri_io_in[11]
*533 uri_io_in[12]
*534 uri_io_in[13]
*535 uri_io_in[14]
*536 uri_io_in[15]
*537 uri_io_in[16]
*538 uri_io_in[17]
*539 uri_io_in[18]
*540 uri_io_in[19]
*541 uri_io_in[1]
*542 uri_io_in[20]
*543 uri_io_in[21]
*544 uri_io_in[22]
*545 uri_io_in[23]
*546 uri_io_in[24]
*547 uri_io_in[25]
*548 uri_io_in[26]
*549 uri_io_in[27]
*550 uri_io_in[28]
*551 uri_io_in[29]
*552 uri_io_in[2]
*553 uri_io_in[30]
*554 uri_io_in[31]
*555 uri_io_in[32]
*556 uri_io_in[33]
*557 uri_io_in[34]
*558 uri_io_in[35]
*559 uri_io_in[36]
*560 uri_io_in[37]
*561 uri_io_in[3]
*562 uri_io_in[4]
*563 uri_io_in[5]
*564 uri_io_in[6]
*565 uri_io_in[7]
*566 uri_io_in[8]
*567 uri_io_in[9]
*568 uri_io_oeb[0]
*569 uri_io_oeb[10]
*570 uri_io_oeb[11]
*571 uri_io_oeb[12]
*572 uri_io_oeb[13]
*573 uri_io_oeb[14]
*574 uri_io_oeb[15]
*575 uri_io_oeb[16]
*576 uri_io_oeb[17]
*577 uri_io_oeb[18]
*578 uri_io_oeb[1]
*579 uri_io_oeb[2]
*580 uri_io_oeb[3]
*581 uri_io_oeb[4]
*582 uri_io_oeb[5]
*583 uri_io_oeb[6]
*584 uri_io_oeb[7]
*585 uri_io_oeb[8]
*586 uri_io_oeb[9]
*587 uri_io_out[0]
*588 uri_io_out[10]
*589 uri_io_out[11]
*590 uri_io_out[12]
*591 uri_io_out[13]
*592 uri_io_out[14]
*593 uri_io_out[15]
*594 uri_io_out[16]
*595 uri_io_out[17]
*596 uri_io_out[18]
*597 uri_io_out[1]
*598 uri_io_out[2]
*599 uri_io_out[3]
*600 uri_io_out[4]
*601 uri_io_out[5]
*602 uri_io_out[6]
*603 uri_io_out[7]
*604 uri_io_out[8]
*605 uri_io_out[9]
*606 uri_rst
*608 vgasp_clk
*609 vgasp_ena
*610 vgasp_io_in[0]
*611 vgasp_io_in[10]
*612 vgasp_io_in[11]
*613 vgasp_io_in[12]
*614 vgasp_io_in[13]
*615 vgasp_io_in[14]
*616 vgasp_io_in[15]
*617 vgasp_io_in[16]
*618 vgasp_io_in[17]
*619 vgasp_io_in[18]
*620 vgasp_io_in[19]
*621 vgasp_io_in[1]
*622 vgasp_io_in[20]
*623 vgasp_io_in[21]
*624 vgasp_io_in[22]
*625 vgasp_io_in[23]
*626 vgasp_io_in[24]
*627 vgasp_io_in[25]
*628 vgasp_io_in[26]
*629 vgasp_io_in[27]
*630 vgasp_io_in[28]
*631 vgasp_io_in[29]
*632 vgasp_io_in[2]
*633 vgasp_io_in[30]
*634 vgasp_io_in[31]
*635 vgasp_io_in[32]
*636 vgasp_io_in[33]
*637 vgasp_io_in[34]
*638 vgasp_io_in[35]
*639 vgasp_io_in[36]
*640 vgasp_io_in[37]
*641 vgasp_io_in[3]
*642 vgasp_io_in[4]
*643 vgasp_io_in[5]
*644 vgasp_io_in[6]
*645 vgasp_io_in[7]
*646 vgasp_io_in[8]
*647 vgasp_io_in[9]
*648 vgasp_rst
*649 vgasp_uio_oe[0]
*650 vgasp_uio_oe[1]
*651 vgasp_uio_oe[2]
*652 vgasp_uio_oe[3]
*653 vgasp_uio_oe[4]
*654 vgasp_uio_oe[5]
*655 vgasp_uio_oe[6]
*656 vgasp_uio_oe[7]
*657 vgasp_uio_out[0]
*658 vgasp_uio_out[1]
*659 vgasp_uio_out[2]
*660 vgasp_uio_out[3]
*661 vgasp_uio_out[4]
*662 vgasp_uio_out[5]
*663 vgasp_uio_out[6]
*664 vgasp_uio_out[7]
*665 vgasp_uo_out[0]
*666 vgasp_uo_out[1]
*667 vgasp_uo_out[2]
*668 vgasp_uo_out[3]
*669 vgasp_uo_out[4]
*670 vgasp_uo_out[5]
*671 vgasp_uo_out[6]
*672 vgasp_uo_out[7]
*674 wb_clk_i
*675 wb_rst_i
*676 _000_
*677 _001_
*678 _002_
*679 _003_
*680 _004_
*681 _005_
*682 _006_
*683 _007_
*684 _008_
*685 _009_
*686 _010_
*687 _011_
*688 _012_
*689 _013_
*690 _014_
*691 _015_
*692 _016_
*693 _017_
*694 _018_
*695 _019_
*696 _020_
*697 _021_
*698 _022_
*699 _023_
*700 _024_
*701 _025_
*702 _026_
*703 _027_
*704 _028_
*705 _029_
*706 _030_
*707 _031_
*708 _032_
*709 _033_
*710 _034_
*711 _035_
*712 _036_
*713 _037_
*714 _038_
*715 _039_
*716 _040_
*717 _041_
*718 _042_
*719 _043_
*720 _044_
*721 _045_
*722 _046_
*723 _047_
*724 _048_
*725 _049_
*726 _050_
*727 _051_
*728 _052_
*729 _053_
*730 _054_
*731 _055_
*732 _056_
*733 _057_
*734 _058_
*735 _059_
*736 _060_
*737 _061_
*738 _062_
*739 _063_
*740 _064_
*741 _065_
*742 _066_
*743 _067_
*744 _068_
*745 _069_
*746 _070_
*747 _071_
*748 _072_
*749 _073_
*750 _074_
*751 _075_
*752 _076_
*753 _077_
*754 _078_
*755 _079_
*756 _080_
*757 _081_
*758 _082_
*759 _083_
*760 _084_
*761 _085_
*762 _086_
*763 _087_
*764 _088_
*765 _089_
*766 _090_
*767 _091_
*768 _092_
*769 _093_
*770 _094_
*771 _095_
*772 _096_
*773 _097_
*774 _098_
*775 _099_
*776 _100_
*777 _101_
*778 _102_
*779 _103_
*780 _104_
*781 _105_
*782 _106_
*783 _107_
*784 _108_
*785 _109_
*786 _110_
*787 _111_
*788 _112_
*789 _113_
*790 _114_
*791 _115_
*792 _116_
*793 _117_
*794 _118_
*795 _119_
*796 _120_
*797 _121_
*798 _122_
*799 _123_
*800 _124_
*801 _125_
*802 _126_
*803 _127_
*804 _128_
*805 _129_
*806 _130_
*807 _131_
*808 _132_
*809 _133_
*810 _134_
*811 _135_
*812 _136_
*813 _137_
*814 _138_
*815 _139_
*816 _140_
*817 _141_
*818 _142_
*819 _143_
*820 _144_
*821 _145_
*822 _146_
*823 _147_
*824 _148_
*825 _149_
*826 _150_
*827 _151_
*828 _152_
*829 _153_
*830 _154_
*831 _155_
*832 _156_
*833 _157_
*834 _158_
*835 _159_
*836 _160_
*837 _161_
*838 _162_
*839 _163_
*840 _164_
*841 _165_
*842 _166_
*843 _167_
*844 _168_
*845 _169_
*846 _170_
*847 _171_
*848 _172_
*849 _173_
*850 _174_
*851 _175_
*852 _176_
*853 _177_
*854 _178_
*855 _179_
*856 _180_
*857 _181_
*858 _182_
*859 _183_
*860 _184_
*861 _185_
*862 _186_
*863 _187_
*864 _188_
*865 _189_
*866 _190_
*867 _191_
*868 _192_
*869 _193_
*870 _194_
*871 _195_
*872 _196_
*873 _197_
*874 _198_
*875 _199_
*876 _200_
*877 _201_
*878 _202_
*879 _203_
*880 _204_
*881 _205_
*882 _206_
*883 _207_
*884 _208_
*885 _209_
*886 _210_
*887 _211_
*888 _212_
*889 _213_
*890 _214_
*891 _215_
*892 _216_
*893 _217_
*894 _218_
*895 _219_
*896 _220_
*897 _221_
*898 _222_
*899 _223_
*900 _224_
*901 _225_
*902 _226_
*903 _227_
*904 _228_
*905 _229_
*906 _230_
*907 _231_
*908 _232_
*909 _233_
*910 _234_
*911 _235_
*912 _236_
*913 _237_
*914 _238_
*915 _239_
*916 _240_
*917 _241_
*918 _242_
*919 _243_
*920 _244_
*921 _245_
*922 _246_
*923 _247_
*924 _248_
*925 _249_
*926 _250_
*927 _251_
*928 _252_
*929 _253_
*930 _254_
*931 _255_
*932 _256_
*933 _257_
*934 _258_
*935 _259_
*936 _260_
*937 _261_
*938 _262_
*939 _263_
*940 _264_
*941 _265_
*942 _266_
*943 _267_
*944 clknet_0_mux_conf_clk
*945 clknet_1_0__leaf_mux_conf_clk
*946 clknet_1_1__leaf_mux_conf_clk
*947 mux_sel\[0\]
*948 mux_sel\[1\]
*949 mux_sel\[2\]
*950 mux_sel\[3\]
*951 net1
*952 net10
*953 net100
*954 net101
*955 net102
*956 net103
*957 net104
*958 net105
*959 net106
*960 net107
*961 net108
*962 net109
*963 net11
*964 net110
*965 net111
*966 net112
*967 net113
*968 net114
*969 net115
*970 net116
*971 net117
*972 net118
*973 net119
*974 net12
*975 net120
*976 net121
*977 net122
*978 net123
*979 net124
*980 net125
*981 net126
*982 net127
*983 net128
*984 net129
*985 net13
*986 net130
*987 net131
*988 net132
*989 net133
*990 net134
*991 net135
*992 net136
*993 net137
*994 net138
*995 net139
*996 net14
*997 net140
*998 net141
*999 net142
*1000 net143
*1001 net144
*1002 net145
*1003 net146
*1004 net147
*1005 net148
*1006 net149
*1007 net15
*1008 net150
*1009 net151
*1010 net152
*1011 net153
*1012 net154
*1013 net155
*1014 net156
*1015 net157
*1016 net158
*1017 net159
*1018 net16
*1019 net160
*1020 net161
*1021 net162
*1022 net163
*1023 net164
*1024 net165
*1025 net166
*1026 net167
*1027 net168
*1028 net169
*1029 net17
*1030 net170
*1031 net171
*1032 net172
*1033 net173
*1034 net174
*1035 net175
*1036 net176
*1037 net177
*1038 net178
*1039 net179
*1040 net18
*1041 net180
*1042 net181
*1043 net182
*1044 net183
*1045 net184
*1046 net185
*1047 net186
*1048 net187
*1049 net188
*1050 net189
*1051 net19
*1052 net190
*1053 net191
*1054 net192
*1055 net193
*1056 net194
*1057 net195
*1058 net196
*1059 net197
*1060 net198
*1061 net199
*1062 net2
*1063 net20
*1064 net200
*1065 net201
*1066 net202
*1067 net203
*1068 net204
*1069 net205
*1070 net206
*1071 net207
*1072 net208
*1073 net209
*1074 net21
*1075 net210
*1076 net211
*1077 net212
*1078 net213
*1079 net214
*1080 net215
*1081 net216
*1082 net217
*1083 net218
*1084 net219
*1085 net22
*1086 net220
*1087 net221
*1088 net222
*1089 net223
*1090 net224
*1091 net225
*1092 net226
*1093 net227
*1094 net228
*1095 net229
*1096 net23
*1097 net230
*1098 net231
*1099 net232
*1100 net233
*1101 net234
*1102 net235
*1103 net236
*1104 net237
*1105 net238
*1106 net239
*1107 net24
*1108 net240
*1109 net241
*1110 net242
*1111 net243
*1112 net244
*1113 net245
*1114 net246
*1115 net247
*1116 net248
*1117 net249
*1118 net25
*1119 net250
*1120 net251
*1121 net252
*1122 net253
*1123 net254
*1124 net255
*1125 net256
*1126 net257
*1127 net258
*1128 net259
*1129 net26
*1130 net260
*1131 net261
*1132 net262
*1133 net263
*1134 net264
*1135 net265
*1136 net266
*1137 net267
*1138 net268
*1139 net269
*1140 net27
*1141 net270
*1142 net271
*1143 net272
*1144 net273
*1145 net274
*1146 net275
*1147 net276
*1148 net277
*1149 net278
*1150 net279
*1151 net28
*1152 net280
*1153 net281
*1154 net282
*1155 net283
*1156 net284
*1157 net285
*1158 net286
*1159 net287
*1160 net288
*1161 net289
*1162 net29
*1163 net290
*1164 net291
*1165 net292
*1166 net293
*1167 net294
*1168 net295
*1169 net296
*1170 net297
*1171 net298
*1172 net299
*1173 net3
*1174 net30
*1175 net300
*1176 net301
*1177 net302
*1178 net303
*1179 net304
*1180 net305
*1181 net306
*1182 net307
*1183 net308
*1184 net309
*1185 net31
*1186 net310
*1187 net311
*1188 net312
*1189 net313
*1190 net314
*1191 net315
*1192 net316
*1193 net317
*1194 net318
*1195 net319
*1196 net32
*1197 net320
*1198 net321
*1199 net322
*1200 net323
*1201 net324
*1202 net325
*1203 net326
*1204 net327
*1205 net328
*1206 net329
*1207 net33
*1208 net330
*1209 net331
*1210 net332
*1211 net333
*1212 net334
*1213 net335
*1214 net336
*1215 net337
*1216 net338
*1217 net339
*1218 net34
*1219 net340
*1220 net341
*1221 net342
*1222 net343
*1223 net344
*1224 net345
*1225 net346
*1226 net347
*1227 net348
*1228 net349
*1229 net35
*1230 net350
*1231 net351
*1232 net352
*1233 net353
*1234 net354
*1235 net355
*1236 net356
*1237 net357
*1238 net358
*1239 net359
*1240 net36
*1241 net360
*1242 net361
*1243 net362
*1244 net363
*1245 net364
*1246 net365
*1247 net366
*1248 net367
*1249 net368
*1250 net369
*1251 net37
*1252 net370
*1253 net371
*1254 net372
*1255 net373
*1256 net374
*1257 net375
*1258 net376
*1259 net377
*1260 net378
*1261 net379
*1262 net38
*1263 net380
*1264 net381
*1265 net382
*1266 net383
*1267 net384
*1268 net385
*1269 net386
*1270 net387
*1271 net388
*1272 net389
*1273 net39
*1274 net390
*1275 net391
*1276 net392
*1277 net393
*1278 net394
*1279 net395
*1280 net396
*1281 net397
*1282 net398
*1283 net399
*1284 net4
*1285 net40
*1286 net400
*1287 net401
*1288 net402
*1289 net403
*1290 net404
*1291 net405
*1292 net406
*1293 net407
*1294 net408
*1295 net409
*1296 net41
*1297 net410
*1298 net411
*1299 net412
*1300 net413
*1301 net414
*1302 net415
*1303 net416
*1304 net417
*1305 net418
*1306 net419
*1307 net42
*1308 net420
*1309 net421
*1310 net422
*1311 net423
*1312 net424
*1313 net425
*1314 net426
*1315 net427
*1316 net428
*1317 net429
*1318 net43
*1319 net430
*1320 net431
*1321 net432
*1322 net433
*1323 net434
*1324 net435
*1325 net436
*1326 net437
*1327 net438
*1328 net439
*1329 net44
*1330 net440
*1331 net441
*1332 net442
*1333 net443
*1334 net444
*1335 net445
*1336 net446
*1337 net447
*1338 net448
*1339 net449
*1340 net45
*1341 net450
*1342 net451
*1343 net452
*1344 net453
*1345 net454
*1346 net455
*1347 net456
*1348 net457
*1349 net458
*1350 net459
*1351 net46
*1352 net460
*1353 net461
*1354 net462
*1355 net463
*1356 net464
*1357 net465
*1358 net466
*1359 net467
*1360 net468
*1361 net469
*1362 net47
*1363 net470
*1364 net471
*1365 net472
*1366 net473
*1367 net474
*1368 net475
*1369 net476
*1370 net477
*1371 net478
*1372 net479
*1373 net48
*1374 net480
*1375 net481
*1376 net482
*1377 net483
*1378 net484
*1379 net485
*1380 net486
*1381 net487
*1382 net488
*1383 net489
*1384 net49
*1385 net490
*1386 net491
*1387 net492
*1388 net493
*1389 net494
*1390 net495
*1391 net496
*1392 net497
*1393 net498
*1394 net499
*1395 net5
*1396 net50
*1397 net500
*1398 net501
*1399 net502
*1400 net503
*1401 net504
*1402 net505
*1403 net506
*1404 net507
*1405 net508
*1406 net509
*1407 net51
*1408 net510
*1409 net511
*1410 net512
*1411 net513
*1412 net514
*1413 net515
*1414 net516
*1415 net517
*1416 net518
*1417 net519
*1418 net52
*1419 net520
*1420 net521
*1421 net522
*1422 net523
*1423 net524
*1424 net525
*1425 net526
*1426 net527
*1427 net528
*1428 net529
*1429 net53
*1430 net530
*1431 net531
*1432 net532
*1433 net533
*1434 net534
*1435 net535
*1436 net536
*1437 net537
*1438 net538
*1439 net539
*1440 net54
*1441 net540
*1442 net541
*1443 net542
*1444 net543
*1445 net544
*1446 net545
*1447 net546
*1448 net547
*1449 net548
*1450 net549
*1451 net55
*1452 net550
*1453 net551
*1454 net552
*1455 net553
*1456 net554
*1457 net555
*1458 net556
*1459 net557
*1460 net558
*1461 net559
*1462 net56
*1463 net560
*1464 net561
*1465 net562
*1466 net563
*1467 net564
*1468 net565
*1469 net566
*1470 net567
*1471 net568
*1472 net569
*1473 net57
*1474 net570
*1475 net571
*1476 net572
*1477 net573
*1478 net574
*1479 net575
*1480 net576
*1481 net577
*1482 net578
*1483 net579
*1484 net58
*1485 net580
*1486 net581
*1487 net582
*1488 net583
*1489 net584
*1490 net585
*1491 net586
*1492 net587
*1493 net588
*1494 net589
*1495 net59
*1496 net590
*1497 net591
*1498 net592
*1499 net593
*1500 net594
*1501 net595
*1502 net596
*1503 net597
*1504 net598
*1505 net599
*1506 net6
*1507 net60
*1508 net600
*1509 net601
*1510 net602
*1511 net603
*1512 net604
*1513 net605
*1514 net606
*1515 net607
*1516 net608
*1517 net609
*1518 net61
*1519 net610
*1520 net611
*1521 net612
*1522 net613
*1523 net614
*1524 net615
*1525 net616
*1526 net617
*1527 net618
*1528 net619
*1529 net62
*1530 net620
*1531 net621
*1532 net622
*1533 net623
*1534 net624
*1535 net625
*1536 net626
*1537 net627
*1538 net628
*1539 net629
*1540 net63
*1541 net630
*1542 net631
*1543 net632
*1544 net633
*1545 net634
*1546 net635
*1547 net636
*1548 net637
*1549 net638
*1550 net639
*1551 net64
*1552 net640
*1553 net641
*1554 net642
*1555 net643
*1556 net644
*1557 net645
*1558 net646
*1559 net647
*1560 net648
*1561 net649
*1562 net65
*1563 net650
*1564 net651
*1565 net652
*1566 net653
*1567 net654
*1568 net655
*1569 net656
*1570 net657
*1571 net658
*1572 net659
*1573 net66
*1574 net660
*1575 net661
*1576 net662
*1577 net663
*1578 net664
*1579 net665
*1580 net666
*1581 net667
*1582 net668
*1583 net669
*1584 net67
*1585 net670
*1586 net671
*1587 net672
*1588 net673
*1589 net674
*1590 net675
*1591 net676
*1592 net677
*1593 net678
*1594 net679
*1595 net68
*1596 net680
*1597 net681
*1598 net682
*1599 net683
*1600 net684
*1601 net685
*1602 net686
*1603 net687
*1604 net688
*1605 net689
*1606 net69
*1607 net690
*1608 net691
*1609 net692
*1610 net693
*1611 net694
*1612 net695
*1613 net696
*1614 net697
*1615 net698
*1616 net699
*1617 net7
*1618 net70
*1619 net700
*1620 net701
*1621 net702
*1622 net703
*1623 net704
*1624 net705
*1625 net706
*1626 net707
*1627 net708
*1628 net709
*1629 net71
*1630 net710
*1631 net711
*1632 net712
*1633 net713
*1634 net714
*1635 net715
*1636 net716
*1637 net717
*1638 net718
*1639 net719
*1640 net72
*1641 net720
*1642 net721
*1643 net722
*1644 net723
*1645 net724
*1646 net725
*1647 net726
*1648 net727
*1649 net728
*1650 net729
*1651 net73
*1652 net730
*1653 net731
*1654 net732
*1655 net733
*1656 net74
*1657 net746
*1658 net747
*1659 net748
*1660 net749
*1661 net75
*1662 net750
*1663 net751
*1664 net752
*1665 net753
*1666 net754
*1667 net755
*1668 net756
*1669 net757
*1670 net758
*1671 net759
*1672 net76
*1673 net760
*1674 net761
*1675 net762
*1676 net763
*1677 net764
*1678 net765
*1679 net766
*1680 net767
*1681 net768
*1682 net769
*1683 net77
*1684 net770
*1685 net771
*1686 net772
*1687 net773
*1688 net774
*1689 net775
*1690 net776
*1691 net777
*1692 net778
*1693 net779
*1694 net78
*1695 net780
*1696 net781
*1697 net782
*1698 net783
*1699 net784
*1700 net785
*1701 net786
*1702 net787
*1703 net788
*1704 net789
*1705 net79
*1706 net790
*1707 net791
*1708 net792
*1709 net793
*1710 net794
*1711 net8
*1712 net80
*1713 net81
*1714 net82
*1715 net83
*1716 net84
*1717 net85
*1718 net86
*1719 net87
*1720 net88
*1721 net89
*1722 net9
*1723 net90
*1724 net91
*1725 net92
*1726 net93
*1727 net94
*1728 net95
*1729 net96
*1730 net97
*1731 net98
*1732 net99
*1733 r_mux_auto_reset_enb\[0\]
*1734 r_mux_auto_reset_enb\[1\]
*1735 r_mux_io5_reset_enb\[0\]
*1736 r_mux_io5_reset_enb\[1\]
*1737 r_mux_sel0\[0\]
*1738 r_mux_sel1\[0\]
*1739 r_mux_sel2\[0\]
*1740 r_mux_sel3\[0\]
*1741 r_mux_sys_reset_enb\[0\]
*1742 r_mux_sys_reset_enb\[1\]
*1743 ANTENNA_1
*1744 ANTENNA_10
*1745 ANTENNA_11
*1746 ANTENNA_12
*1747 ANTENNA_13
*1748 ANTENNA_14
*1749 ANTENNA_15
*1750 ANTENNA_16
*1751 ANTENNA_17
*1752 ANTENNA_18
*1753 ANTENNA_19
*1754 ANTENNA_2
*1755 ANTENNA_20
*1756 ANTENNA_21
*1757 ANTENNA_22
*1758 ANTENNA_23
*1759 ANTENNA_3
*1760 ANTENNA_4
*1761 ANTENNA_5
*1762 ANTENNA_6
*1763 ANTENNA_7
*1764 ANTENNA_8
*1765 ANTENNA_9
*1766 ANTENNA__274__I
*1767 ANTENNA__275__I
*1768 ANTENNA__280__A1
*1769 ANTENNA__280__A2
*1770 ANTENNA__281__I
*1771 ANTENNA__282__I
*1772 ANTENNA__283__I
*1773 ANTENNA__285__A2
*1774 ANTENNA__291__I
*1775 ANTENNA__294__I
*1776 ANTENNA__297__A2
*1777 ANTENNA__298__I
*1778 ANTENNA__300__I
*1779 ANTENNA__302__A2
*1780 ANTENNA__304__I
*1781 ANTENNA__305__A1
*1782 ANTENNA__305__A2
*1783 ANTENNA__308__I
*1784 ANTENNA__309__A1
*1785 ANTENNA__311__A1
*1786 ANTENNA__318__A2
*1787 ANTENNA__322__I
*1788 ANTENNA__323__A1
*1789 ANTENNA__324__A1
*1790 ANTENNA__325__A1
*1791 ANTENNA__327__A2
*1792 ANTENNA__328__I
*1793 ANTENNA__329__I
*1794 ANTENNA__330__I
*1795 ANTENNA__332__I
*1796 ANTENNA__333__A1
*1797 ANTENNA__333__A2
*1798 ANTENNA__333__B1
*1799 ANTENNA__333__B2
*1800 ANTENNA__333__C1
*1801 ANTENNA__333__C2
*1802 ANTENNA__334__I
*1803 ANTENNA__338__A1
*1804 ANTENNA__338__A2
*1805 ANTENNA__338__B1
*1806 ANTENNA__338__B2
*1807 ANTENNA__338__C1
*1808 ANTENNA__338__C2
*1809 ANTENNA__342__I
*1810 ANTENNA__343__A1
*1811 ANTENNA__343__B2
*1812 ANTENNA__344__A1
*1813 ANTENNA__344__A2
*1814 ANTENNA__344__A4
*1815 ANTENNA__346__I
*1816 ANTENNA__347__A1
*1817 ANTENNA__347__A2
*1818 ANTENNA__347__B1
*1819 ANTENNA__347__B2
*1820 ANTENNA__347__C1
*1821 ANTENNA__347__C2
*1822 ANTENNA__349__I
*1823 ANTENNA__351__A1
*1824 ANTENNA__351__B1
*1825 ANTENNA__351__B2
*1826 ANTENNA__352__I
*1827 ANTENNA__353__I
*1828 ANTENNA__354__I
*1829 ANTENNA__355__I
*1830 ANTENNA__358__A1
*1831 ANTENNA__358__B2
*1832 ANTENNA__358__C1
*1833 ANTENNA__358__C2
*1834 ANTENNA__359__A1
*1835 ANTENNA__359__A3
*1836 ANTENNA__360__A1
*1837 ANTENNA__360__A2
*1838 ANTENNA__360__B1
*1839 ANTENNA__360__B2
*1840 ANTENNA__360__C1
*1841 ANTENNA__360__C2
*1842 ANTENNA__361__A1
*1843 ANTENNA__361__B1
*1844 ANTENNA__361__B2
*1845 ANTENNA__363__A1
*1846 ANTENNA__363__B2
*1847 ANTENNA__363__C1
*1848 ANTENNA__363__C2
*1849 ANTENNA__364__A1
*1850 ANTENNA__364__A3
*1851 ANTENNA__365__I
*1852 ANTENNA__366__I
*1853 ANTENNA__367__A1
*1854 ANTENNA__367__B2
*1855 ANTENNA__367__C1
*1856 ANTENNA__367__C2
*1857 ANTENNA__369__A1
*1858 ANTENNA__369__B1
*1859 ANTENNA__369__B2
*1860 ANTENNA__370__I
*1861 ANTENNA__371__I
*1862 ANTENNA__372__A1
*1863 ANTENNA__372__B2
*1864 ANTENNA__372__C1
*1865 ANTENNA__372__C2
*1866 ANTENNA__373__A1
*1867 ANTENNA__373__A3
*1868 ANTENNA__374__I
*1869 ANTENNA__375__A1
*1870 ANTENNA__375__B2
*1871 ANTENNA__375__C1
*1872 ANTENNA__375__C2
*1873 ANTENNA__376__A1
*1874 ANTENNA__376__B1
*1875 ANTENNA__376__B2
*1876 ANTENNA__377__A1
*1877 ANTENNA__377__B2
*1878 ANTENNA__377__C1
*1879 ANTENNA__377__C2
*1880 ANTENNA__378__A3
*1881 ANTENNA__380__A1
*1882 ANTENNA__380__B2
*1883 ANTENNA__380__C1
*1884 ANTENNA__380__C2
*1885 ANTENNA__381__I
*1886 ANTENNA__382__A1
*1887 ANTENNA__382__A2
*1888 ANTENNA__382__B1
*1889 ANTENNA__382__B2
*1890 ANTENNA__383__A1
*1891 ANTENNA__383__B2
*1892 ANTENNA__383__C1
*1893 ANTENNA__383__C2
*1894 ANTENNA__384__A3
*1895 ANTENNA__385__A1
*1896 ANTENNA__385__B2
*1897 ANTENNA__385__C1
*1898 ANTENNA__385__C2