*SPEF "ieee 1481-1999"
*DESIGN "urish_simon_says"
*DATE "11:11:11 Fri 11 11, 1111"
*VENDOR "OpenRCX"
*PROGRAM "Parallel Extraction"
*VERSION "1.0"
*DESIGN_FLOW "NAME_SCOPE LOCAL" "PIN_CAP NONE"
*DIVIDER /
*DELIMITER :
*BUS_DELIMITER []
*T_UNIT 1 NS
*C_UNIT 1 PF
*R_UNIT 1 OHM
*L_UNIT 1 HENRY

*NAME_MAP
*1 io_in[0]
*2 io_in[10]
*3 io_in[11]
*4 io_in[12]
*5 io_in[13]
*6 io_in[14]
*7 io_in[15]
*8 io_in[16]
*9 io_in[17]
*10 io_in[18]
*11 io_in[19]
*12 io_in[1]
*13 io_in[20]
*14 io_in[21]
*15 io_in[22]
*16 io_in[23]
*17 io_in[24]
*18 io_in[25]
*19 io_in[26]
*20 io_in[27]
*21 io_in[28]
*22 io_in[29]
*23 io_in[2]
*24 io_in[30]
*25 io_in[31]
*26 io_in[32]
*27 io_in[33]
*28 io_in[34]
*29 io_in[35]
*30 io_in[36]
*31 io_in[37]
*32 io_in[3]
*33 io_in[4]
*34 io_in[5]
*35 io_in[6]
*36 io_in[7]
*37 io_in[8]
*38 io_in[9]
*39 net59
*40 net69
*41 net70
*42 net21
*43 net22
*44 net23
*45 net24
*46 net25
*47 net26
*48 net27
*49 net28
*50 net60
*51 net29
*52 net30
*53 net31
*54 net32
*55 net33
*56 net34
*57 net71
*58 net72
*59 net73
*60 net74
*61 net61
*62 net75
*63 net76
*64 net77
*65 net78
*66 net79
*67 net80
*68 net81
*69 net82
*70 net62
*71 net63
*72 net64
*73 net65
*74 net66
*75 net67
*76 net68
*77 net35
*78 net45
*79 net46
*80 io_out[12]
*81 io_out[13]
*82 io_out[14]
*83 io_out[15]
*84 io_out[16]
*85 io_out[17]
*86 io_out[18]
*87 io_out[19]
*88 net36
*89 io_out[20]
*90 io_out[21]
*91 io_out[22]
*92 io_out[23]
*93 io_out[24]
*94 io_out[25]
*95 net47
*96 net48
*97 net49
*98 net50
*99 net37
*100 net51
*101 net52
*102 net53
*103 net54
*104 net55
*105 net56
*106 net57
*107 net58
*108 net38
*109 net39
*110 net40
*111 net41
*112 net42
*113 net43
*114 net44
*117 wb_clk_i
*118 wb_rst_i
*119 _0000_
*120 _0001_
*121 _0002_
*122 _0003_
*123 _0004_
*124 _0005_
*125 _0006_
*126 _0007_
*127 _0008_
*128 _0009_
*129 _0010_
*130 _0011_
*131 _0012_
*132 _0013_
*133 _0014_
*134 _0015_
*135 _0016_
*136 _0017_
*137 _0018_
*138 _0019_
*139 _0020_
*140 _0021_
*141 _0022_
*142 _0023_
*143 _0024_
*144 _0025_
*145 _0026_
*146 _0027_
*147 _0028_
*148 _0029_
*149 _0030_
*150 _0031_
*151 _0032_
*152 _0033_
*153 _0034_
*154 _0035_
*155 _0036_
*156 _0037_
*157 _0038_
*158 _0039_
*159 _0040_
*160 _0041_
*161 _0042_
*162 _0043_
*163 _0044_
*164 _0045_
*165 _0046_
*166 _0047_
*167 _0048_
*168 _0049_
*169 _0050_
*170 _0051_
*171 _0052_
*172 _0053_
*173 _0054_
*174 _0055_
*175 _0056_
*176 _0057_
*177 _0058_
*178 _0059_
*179 _0060_
*180 _0061_
*181 _0062_
*182 _0063_
*183 _0064_
*184 _0065_
*185 _0066_
*186 _0067_
*187 _0068_
*188 _0069_
*189 _0070_
*190 _0071_
*191 _0072_
*192 _0073_
*193 _0074_
*194 _0075_
*195 _0076_
*196 _0077_
*197 _0078_
*198 _0079_
*199 _0080_
*200 _0081_
*201 _0082_
*202 _0083_
*203 _0084_
*204 _0085_
*205 _0086_
*206 _0087_
*207 _0088_
*208 _0089_
*209 _0090_
*210 _0091_
*211 _0092_
*212 _0093_
*213 _0094_
*214 _0095_
*215 _0096_
*216 _0097_
*217 _0098_
*218 _0099_
*219 _0100_
*220 _0101_
*221 _0102_
*222 _0103_
*223 _0104_
*224 _0105_
*225 _0106_
*226 _0107_
*227 _0108_
*228 _0109_
*229 _0110_
*230 _0111_
*231 _0112_
*232 _0113_
*233 _0114_
*234 _0115_
*235 _0116_
*236 _0117_
*237 _0118_
*238 _0119_
*239 _0120_
*240 _0121_
*241 _0122_
*242 _0123_
*243 _0124_
*244 _0125_
*245 _0126_
*246 _0127_
*247 _0128_
*248 _0129_
*249 _0130_
*250 _0131_
*251 _0132_
*252 _0133_
*253 _0134_
*254 _0135_
*255 _0136_
*256 _0137_
*257 _0138_
*258 _0139_
*259 _0140_
*260 _0141_
*261 _0142_
*262 _0143_
*263 _0144_
*264 _0145_
*265 _0146_
*266 _0147_
*267 _0148_
*268 _0149_
*269 _0150_
*270 _0151_
*271 _0152_
*272 _0153_
*273 _0154_
*274 _0155_
*275 _0156_
*276 _0157_
*277 _0158_
*278 _0159_
*279 _0160_
*280 _0161_
*281 _0162_
*282 _0163_
*283 _0164_
*284 _0165_
*285 _0166_
*286 _0167_
*287 _0168_
*288 _0169_
*289 _0170_
*290 _0171_
*291 _0172_
*292 _0173_
*293 _0174_
*294 _0175_
*295 _0176_
*296 _0177_
*297 _0178_
*298 _0179_
*299 _0180_
*300 _0181_
*301 _0182_
*302 _0183_
*303 _0184_
*304 _0185_
*305 _0186_
*306 _0187_
*307 _0188_
*308 _0189_
*309 _0190_
*310 _0191_
*311 _0192_
*312 _0193_
*313 _0194_
*314 _0195_
*315 _0196_
*316 _0197_
*317 _0198_
*318 _0199_
*319 _0200_
*320 _0201_
*321 _0202_
*322 _0203_
*323 _0204_
*324 _0205_
*325 _0206_
*326 _0207_
*327 _0208_
*328 _0209_
*329 _0210_
*330 _0211_
*331 _0212_
*332 _0213_
*333 _0214_
*334 _0215_
*335 _0216_
*336 _0217_
*337 _0218_
*338 _0219_
*339 _0220_
*340 _0221_
*341 _0222_
*342 _0223_
*343 _0224_
*344 _0225_
*345 _0226_
*346 _0227_
*347 _0228_
*348 _0229_
*349 _0230_
*350 _0231_
*351 _0232_
*352 _0233_
*353 _0234_
*354 _0235_
*355 _0236_
*356 _0237_
*357 _0238_
*358 _0239_
*359 _0240_
*360 _0241_
*361 _0242_
*362 _0243_
*363 _0244_
*364 _0245_
*365 _0246_
*366 _0247_
*367 _0248_
*368 _0249_
*369 _0250_
*370 _0251_
*371 _0252_
*372 _0253_
*373 _0254_
*374 _0255_
*375 _0256_
*376 _0257_
*377 _0258_
*378 _0259_
*379 _0260_
*380 _0261_
*381 _0262_
*382 _0263_
*383 _0264_
*384 _0265_
*385 _0266_
*386 _0267_
*387 _0268_
*388 _0269_
*389 _0270_
*390 _0271_
*391 _0272_
*392 _0273_
*393 _0274_
*394 _0275_
*395 _0276_
*396 _0277_
*397 _0278_
*398 _0279_
*399 _0280_
*400 _0281_
*401 _0282_
*402 _0283_
*403 _0284_
*404 _0285_
*405 _0286_
*406 _0287_
*407 _0288_
*408 _0289_
*409 _0290_
*410 _0291_
*411 _0292_
*412 _0293_
*413 _0294_
*414 _0295_
*415 _0296_
*416 _0297_
*417 _0298_
*418 _0299_
*419 _0300_
*420 _0301_
*421 _0302_
*422 _0303_
*423 _0304_
*424 _0305_
*425 _0306_
*426 _0307_
*427 _0308_
*428 _0309_
*429 _0310_
*430 _0311_
*431 _0312_
*432 _0313_
*433 _0314_
*434 _0315_
*435 _0316_
*436 _0317_
*437 _0318_
*438 _0319_
*439 _0320_
*440 _0321_
*441 _0322_
*442 _0323_
*443 _0324_
*444 _0325_
*445 _0326_
*446 _0327_
*447 _0328_
*448 _0329_
*449 _0330_
*450 _0331_
*451 _0332_
*452 _0333_
*453 _0334_
*454 _0335_
*455 _0336_
*456 _0337_
*457 _0338_
*458 _0339_
*459 _0340_
*460 _0341_
*461 _0342_
*462 _0343_
*463 _0344_
*464 _0345_
*465 _0346_
*466 _0347_
*467 _0348_
*468 _0349_
*469 _0350_
*470 _0351_
*471 _0352_
*472 _0353_
*473 _0354_
*474 _0355_
*475 _0356_
*476 _0357_
*477 _0358_
*478 _0359_
*479 _0360_
*480 _0361_
*481 _0362_
*482 _0363_
*483 _0364_
*484 _0365_
*485 _0366_
*486 _0367_
*487 _0368_
*488 _0369_
*489 _0370_
*490 _0371_
*491 _0372_
*492 _0373_
*493 _0374_
*494 _0375_
*495 _0376_
*496 _0377_
*497 _0378_
*498 _0379_
*499 _0380_
*500 _0381_
*501 _0382_
*502 _0383_
*503 _0384_
*504 _0385_
*505 _0386_
*506 _0387_
*507 _0388_
*508 _0389_
*509 _0390_
*510 _0391_
*511 _0392_
*512 _0393_
*513 _0394_
*514 _0395_
*515 _0396_
*516 _0397_
*517 _0398_
*518 _0399_
*519 _0400_
*520 _0401_
*521 _0402_
*522 _0403_
*523 _0404_
*524 _0405_
*525 _0406_
*526 _0407_
*527 _0408_
*528 _0409_
*529 _0410_
*530 _0411_
*531 _0412_
*532 _0413_
*533 _0414_
*534 _0415_
*535 _0416_
*536 _0417_
*537 _0418_
*538 _0419_
*539 _0420_
*540 _0421_
*541 _0422_
*542 _0423_
*543 _0424_
*544 _0425_
*545 _0426_
*546 _0427_
*547 _0428_
*548 _0429_
*549 _0430_
*550 _0431_
*551 _0432_
*552 _0433_
*553 _0434_
*554 _0435_
*555 _0436_
*556 _0437_
*557 _0438_
*558 _0439_
*559 _0440_
*560 _0441_
*561 _0442_
*562 _0443_
*563 _0444_
*564 _0445_
*565 _0446_
*566 _0447_
*567 _0448_
*568 _0449_
*569 _0450_
*570 _0451_
*571 _0452_
*572 _0453_
*573 _0454_
*574 _0455_
*575 _0456_
*576 _0457_
*577 _0458_
*578 _0459_
*579 _0460_
*580 _0461_
*581 _0462_
*582 _0463_
*583 _0464_
*584 _0465_
*585 _0466_
*586 _0467_
*587 _0468_
*588 _0469_
*589 _0470_
*590 _0471_
*591 _0472_
*592 _0473_
*593 _0474_
*594 _0475_
*595 _0476_
*596 _0477_
*597 _0478_
*598 _0479_
*599 _0480_
*600 _0481_
*601 _0482_
*602 _0483_
*603 _0484_
*604 _0485_
*605 _0486_
*606 _0487_
*607 _0488_
*608 _0489_
*609 _0490_
*610 _0491_
*611 _0492_
*612 _0493_
*613 _0494_
*614 _0495_
*615 _0496_
*616 _0497_
*617 _0498_
*618 _0499_
*619 _0500_
*620 _0501_
*621 _0502_
*622 _0503_
*623 _0504_
*624 _0505_
*625 _0506_
*626 _0507_
*627 _0508_
*628 _0509_
*629 _0510_
*630 _0511_
*631 _0512_
*632 _0513_
*633 _0514_
*634 _0515_
*635 _0516_
*636 _0517_
*637 _0518_
*638 _0519_
*639 _0520_
*640 _0521_
*641 _0522_
*642 _0523_
*643 _0524_
*644 _0525_
*645 _0526_
*646 _0527_
*647 _0528_
*648 _0529_
*649 _0530_
*650 _0531_
*651 _0532_
*652 _0533_
*653 _0534_
*654 _0535_
*655 _0536_
*656 _0537_
*657 _0538_
*658 _0539_
*659 _0540_
*660 _0541_
*661 _0542_
*662 _0543_
*663 _0544_
*664 _0545_
*665 _0546_
*666 _0547_
*667 _0548_
*668 _0549_
*669 _0550_
*670 _0551_
*671 _0552_
*672 _0553_
*673 _0554_
*674 _0555_
*675 _0556_
*676 _0557_
*677 _0558_
*678 _0559_
*679 _0560_
*680 _0561_
*681 _0562_
*682 _0563_
*683 _0564_
*684 _0565_
*685 _0566_
*686 _0567_
*687 _0568_
*688 _0569_
*689 _0570_
*690 _0571_
*691 _0572_
*692 _0573_
*693 _0574_
*694 _0575_
*695 _0576_
*696 _0577_
*697 _0578_
*698 _0579_
*699 _0580_
*700 _0581_
*701 _0582_
*702 _0583_
*703 _0584_
*704 _0585_
*705 _0586_
*706 _0587_
*707 _0588_
*708 _0589_
*709 _0590_
*710 _0591_
*711 _0592_
*712 _0593_
*713 _0594_
*714 _0595_
*715 _0596_
*716 _0597_
*717 _0598_
*718 _0599_
*719 _0600_
*720 _0601_
*721 _0602_
*722 _0603_
*723 _0604_
*724 _0605_
*725 _0606_
*726 _0607_
*727 _0608_
*728 _0609_
*729 _0610_
*730 _0611_
*731 _0612_
*732 _0613_
*733 _0614_
*734 _0615_
*735 _0616_
*736 _0617_
*737 _0618_
*738 _0619_
*739 _0620_
*740 _0621_
*741 _0622_
*742 _0623_
*743 _0624_
*744 _0625_
*745 _0626_
*746 _0627_
*747 _0628_
*748 _0629_
*749 _0630_
*750 _0631_
*751 _0632_
*752 _0633_
*753 _0634_
*754 _0635_
*755 _0636_
*756 _0637_
*757 _0638_
*758 _0639_
*759 _0640_
*760 _0641_
*761 _0642_
*762 _0643_
*763 _0644_
*764 _0645_
*765 _0646_
*766 _0647_
*767 _0648_
*768 _0649_
*769 _0650_
*770 _0651_
*771 _0652_
*772 _0653_
*773 _0654_
*774 _0655_
*775 _0656_
*776 _0657_
*777 _0658_
*778 _0659_
*779 _0660_
*780 _0661_
*781 _0662_
*782 _0663_
*783 _0664_
*784 _0665_
*785 _0666_
*786 _0667_
*787 _0668_
*788 _0669_
*789 _0670_
*790 _0671_
*791 _0672_
*792 _0673_
*793 _0674_
*794 _0675_
*795 _0676_
*796 _0677_
*797 _0678_
*798 _0679_
*799 _0680_
*800 _0681_
*801 _0682_
*802 _0683_
*803 _0684_
*804 _0685_
*805 _0686_
*806 _0687_
*807 _0688_
*808 _0689_
*809 _0690_
*810 _0691_
*811 _0692_
*812 _0693_
*813 _0694_
*814 _0695_
*815 _0696_
*816 _0697_
*817 _0698_
*818 _0699_
*819 _0700_
*820 _0701_
*821 _0702_
*822 _0703_
*823 _0704_
*824 _0705_
*825 _0706_
*826 _0707_
*827 _0708_
*828 _0709_
*829 _0710_
*830 _0711_
*831 _0712_
*832 _0713_
*833 _0714_
*834 _0715_
*835 _0716_
*836 _0717_
*837 _0718_
*838 _0719_
*839 _0720_
*840 _0721_
*841 _0722_
*842 _0723_
*843 _0724_
*844 _0725_
*845 _0726_
*846 _0727_
*847 _0728_
*848 _0729_
*849 _0730_
*850 _0731_
*851 _0732_
*852 _0733_
*853 _0734_
*854 _0735_
*855 _0736_
*856 _0737_
*857 _0738_
*858 _0739_
*859 _0740_
*860 _0741_
*861 _0742_
*862 _0743_
*863 _0744_
*864 _0745_
*865 _0746_
*866 _0747_
*867 _0748_
*868 _0749_
*869 _0750_
*870 _0751_
*871 _0752_
*872 _0753_
*873 _0754_
*874 _0755_
*875 _0756_
*876 _0757_
*877 _0758_
*878 _0759_
*879 _0760_
*880 _0761_
*881 _0762_
*882 _0763_
*883 _0764_
*884 _0765_
*885 _0766_
*886 _0767_
*887 _0768_
*888 _0769_
*889 _0770_
*890 _0771_
*891 _0772_
*892 _0773_
*893 _0774_
*894 _0775_
*895 _0776_
*896 _0777_
*897 _0778_
*898 _0779_
*899 _0780_
*900 _0781_
*901 _0782_
*902 _0783_
*903 _0784_
*904 _0785_
*905 _0786_
*906 _0787_
*907 _0788_
*908 _0789_
*909 _0790_
*910 _0791_
*911 _0792_
*912 _0793_
*913 _0794_
*914 _0795_
*915 _0796_
*916 _0797_
*917 _0798_
*918 _0799_
*919 _0800_
*920 _0801_
*921 _0802_
*922 _0803_
*923 _0804_
*924 _0805_
*925 _0806_
*926 _0807_
*927 _0808_
*928 _0809_
*929 _0810_
*930 _0811_
*931 _0812_
*932 _0813_
*933 _0814_
*934 _0815_
*935 _0816_
*936 _0817_
*937 _0818_
*938 _0819_
*939 _0820_
*940 _0821_
*941 _0822_
*942 _0823_
*943 _0824_
*944 _0825_
*945 _0826_
*946 _0827_
*947 _0828_
*948 _0829_
*949 _0830_
*950 _0831_
*951 _0832_
*952 _0833_
*953 _0834_
*954 _0835_
*955 _0836_
*956 _0837_
*957 _0838_
*958 _0839_
*959 _0840_
*960 _0841_
*961 _0842_
*962 _0843_
*963 _0844_
*964 _0845_
*965 _0846_
*966 _0847_
*967 _0848_
*968 _0849_
*969 _0850_
*970 _0851_
*971 _0852_
*972 _0853_
*973 _0854_
*974 _0855_
*975 _0856_
*976 _0857_
*977 _0858_
*978 _0859_
*979 _0860_
*980 _0861_
*981 _0862_
*982 _0863_
*983 _0864_
*984 _0865_
*985 _0866_
*986 _0867_
*987 _0868_
*988 _0869_
*989 _0870_
*990 _0871_
*991 _0872_
*992 _0873_
*993 _0874_
*994 _0875_
*995 _0876_
*996 _0877_
*997 _0878_
*998 _0879_
*999 _0880_
*1000 _0881_
*1001 _0882_
*1002 _0883_
*1003 _0884_
*1004 _0885_
*1005 _0886_
*1006 _0887_
*1007 _0888_
*1008 _0889_
*1009 _0890_
*1010 _0891_
*1011 _0892_
*1012 _0893_
*1013 _0894_
*1014 _0895_
*1015 _0896_
*1016 _0897_
*1017 _0898_
*1018 _0899_
*1019 _0900_
*1020 _0901_
*1021 _0902_
*1022 _0903_
*1023 _0904_
*1024 _0905_
*1025 _0906_
*1026 _0907_
*1027 _0908_
*1028 _0909_
*1029 _0910_
*1030 _0911_
*1031 _0912_
*1032 _0913_
*1033 _0914_
*1034 _0915_
*1035 _0916_
*1036 _0917_
*1037 _0918_
*1038 _0919_
*1039 _0920_
*1040 _0921_
*1041 _0922_
*1042 _0923_
*1043 _0924_
*1044 _0925_
*1045 _0926_
*1046 _0927_
*1047 _0928_
*1048 _0929_
*1049 _0930_
*1050 _0931_
*1051 _0932_
*1052 _0933_
*1053 _0934_
*1054 _0935_
*1055 _0936_
*1056 _0937_
*1057 _0938_
*1058 _0939_
*1059 _0940_
*1060 _0941_
*1061 _0942_
*1062 _0943_
*1063 _0944_
*1064 _0945_
*1065 _0946_
*1066 _0947_
*1067 _0948_
*1068 _0949_
*1069 _0950_
*1070 _0951_
*1071 _0952_
*1072 _0953_
*1073 _0954_
*1074 _0955_
*1075 _0956_
*1076 _0957_
*1077 _0958_
*1078 _0959_
*1079 _0960_
*1080 _0961_
*1081 _0962_
*1082 _0963_
*1083 _0964_
*1084 _0965_
*1085 _0966_
*1086 _0967_
*1087 _0968_
*1088 _0969_
*1089 _0970_
*1090 _0971_
*1091 _0972_
*1092 _0973_
*1093 _0974_
*1094 _0975_
*1095 _0976_
*1096 _0977_
*1097 _0978_
*1098 _0979_
*1099 _0980_
*1100 _0981_
*1101 _0982_
*1102 _0983_
*1103 _0984_
*1104 _0985_
*1105 _0986_
*1106 _0987_
*1107 _0988_
*1108 _0989_
*1109 _0990_
*1110 _0991_
*1111 _0992_
*1112 _0993_
*1113 _0994_
*1114 _0995_
*1115 _0996_
*1116 _0997_
*1117 _0998_
*1118 _0999_
*1119 _1000_
*1120 _1001_
*1121 _1002_
*1122 _1003_
*1123 _1004_
*1124 _1005_
*1125 _1006_
*1126 _1007_
*1127 _1008_
*1128 _1009_
*1129 _1010_
*1130 _1011_
*1131 _1012_
*1132 _1013_
*1133 _1014_
*1134 _1015_
*1135 _1016_
*1136 _1017_
*1137 _1018_
*1138 _1019_
*1139 _1020_
*1140 _1021_
*1141 _1022_
*1142 _1023_
*1143 _1024_
*1144 _1025_
*1145 _1026_
*1146 _1027_
*1147 _1028_
*1148 _1029_
*1149 _1030_
*1150 _1031_
*1151 _1032_
*1152 _1033_
*1153 _1034_
*1154 _1035_
*1155 _1036_
*1156 _1037_
*1157 _1038_
*1158 _1039_
*1159 _1040_
*1160 _1041_
*1161 _1042_
*1162 _1043_
*1163 _1044_
*1164 _1045_
*1165 _1046_
*1166 _1047_
*1167 _1048_
*1168 _1049_
*1169 _1050_
*1170 _1051_
*1171 _1052_
*1172 _1053_
*1173 _1054_
*1174 _1055_
*1175 _1056_
*1176 _1057_
*1177 _1058_
*1178 _1059_
*1179 _1060_
*1180 _1061_
*1181 _1062_
*1182 _1063_
*1183 _1064_
*1184 _1065_
*1185 _1066_
*1186 _1067_
*1187 _1068_
*1188 _1069_
*1189 _1070_
*1190 _1071_
*1191 _1072_
*1192 _1073_
*1193 _1074_
*1194 _1075_
*1195 _1076_
*1196 _1077_
*1197 _1078_
*1198 _1079_
*1199 _1080_
*1200 _1081_
*1201 _1082_
*1202 _1083_
*1203 _1084_
*1204 _1085_
*1205 _1086_
*1206 _1087_
*1207 _1088_
*1208 _1089_
*1209 _1090_
*1210 _1091_
*1211 _1092_
*1212 _1093_
*1213 _1094_
*1214 _1095_
*1215 _1096_
*1216 _1097_
*1217 _1098_
*1218 _1099_
*1219 _1100_
*1220 _1101_
*1221 _1102_
*1222 _1103_
*1223 _1104_
*1224 _1105_
*1225 _1106_
*1226 _1107_
*1227 _1108_
*1228 _1109_
*1229 _1110_
*1230 _1111_
*1231 _1112_
*1232 _1113_
*1233 _1114_
*1234 _1115_
*1235 _1116_
*1236 _1117_
*1237 _1118_
*1238 _1119_
*1239 _1120_
*1240 _1121_
*1241 _1122_
*1242 _1123_
*1243 _1124_
*1244 _1125_
*1245 _1126_
*1246 _1127_
*1247 _1128_
*1248 _1129_
*1249 _1130_
*1250 _1131_
*1251 _1132_
*1252 _1133_
*1253 _1134_
*1254 _1135_
*1255 _1136_
*1256 _1137_
*1257 _1138_
*1258 _1139_
*1259 _1140_
*1260 _1141_
*1261 _1142_
*1262 _1143_
*1263 _1144_
*1264 _1145_
*1265 _1146_
*1266 _1147_
*1267 _1148_
*1268 _1149_
*1269 _1150_
*1270 _1151_
*1271 _1152_
*1272 _1153_
*1273 _1154_
*1274 _1155_
*1275 _1156_
*1276 _1157_
*1277 _1158_
*1278 _1159_
*1279 _1160_
*1280 _1161_
*1281 _1162_
*1282 _1163_
*1283 _1164_
*1284 _1165_
*1285 _1166_
*1286 _1167_
*1287 _1168_
*1288 _1169_
*1289 _1170_
*1290 _1171_
*1291 _1172_
*1292 _1173_
*1293 _1174_
*1294 _1175_
*1295 _1176_
*1296 _1177_
*1297 _1178_
*1298 _1179_
*1299 _1180_
*1300 _1181_
*1301 _1182_
*1302 _1183_
*1303 _1184_
*1304 _1185_
*1305 _1186_
*1306 _1187_
*1307 _1188_
*1308 _1189_
*1309 _1190_
*1310 _1191_
*1311 _1192_
*1312 _1193_
*1313 _1194_
*1314 _1195_
*1315 _1196_
*1316 _1197_
*1317 _1198_
*1318 _1199_
*1319 _1200_
*1320 _1201_
*1321 _1202_
*1322 _1203_
*1323 _1204_
*1324 _1205_
*1325 _1206_
*1326 _1207_
*1327 _1208_
*1328 _1209_
*1329 _1210_
*1330 _1211_
*1331 _1212_
*1332 _1213_
*1333 _1214_
*1334 _1215_
*1335 _1216_
*1336 _1217_
*1337 _1218_
*1338 _1219_
*1339 _1220_
*1340 _1221_
*1341 _1222_
*1342 _1223_
*1343 _1224_
*1344 _1225_
*1345 _1226_
*1346 _1227_
*1347 _1228_
*1348 _1229_
*1349 _1230_
*1350 _1231_
*1351 _1232_
*1352 _1233_
*1353 _1234_
*1354 _1235_
*1355 _1236_
*1356 _1237_
*1357 _1238_
*1358 _1239_
*1359 _1240_
*1360 _1241_
*1361 _1242_
*1362 _1243_
*1363 _1244_
*1364 _1245_
*1365 _1246_
*1366 _1247_
*1367 _1248_
*1368 _1249_
*1369 _1250_
*1370 _1251_
*1371 _1252_
*1372 _1253_
*1373 _1254_
*1374 _1255_
*1375 _1256_
*1376 _1257_
*1377 _1258_
*1378 _1259_
*1379 _1260_
*1380 _1261_
*1381 _1262_
*1382 _1263_
*1383 _1264_
*1384 _1265_
*1385 _1266_
*1386 _1267_
*1387 _1268_
*1388 _1269_
*1389 _1270_
*1390 _1271_
*1391 _1272_
*1392 _1273_
*1393 _1274_
*1394 _1275_
*1395 _1276_
*1396 _1277_
*1397 _1278_
*1398 _1279_
*1399 _1280_
*1400 _1281_
*1401 _1282_
*1402 _1283_
*1403 _1284_
*1404 _1285_
*1405 _1286_
*1406 clknet_0_wb_clk_i
*1407 clknet_4_0_0_wb_clk_i
*1408 clknet_4_10_0_wb_clk_i
*1409 clknet_4_11_0_wb_clk_i
*1410 clknet_4_12_0_wb_clk_i
*1411 clknet_4_13_0_wb_clk_i
*1412 clknet_4_14_0_wb_clk_i
*1413 clknet_4_15_0_wb_clk_i
*1414 clknet_4_1_0_wb_clk_i
*1415 clknet_4_2_0_wb_clk_i
*1416 clknet_4_3_0_wb_clk_i
*1417 clknet_4_4_0_wb_clk_i
*1418 clknet_4_5_0_wb_clk_i
*1419 clknet_4_6_0_wb_clk_i
*1420 clknet_4_7_0_wb_clk_i
*1421 clknet_4_8_0_wb_clk_i
*1422 clknet_4_9_0_wb_clk_i
*1423 net1
*1424 net10
*1425 net11
*1426 net12
*1427 net13
*1428 net14
*1429 net15
*1430 net16
*1431 net17
*1432 net18
*1433 net19
*1434 net2
*1435 net20
*1436 net3
*1437 net4
*1438 net5
*1439 net6
*1440 net7
*1441 net8
*1442 net9
*1443 simon1\.millis_counter\[0\]
*1444 simon1\.millis_counter\[1\]
*1445 simon1\.millis_counter\[2\]
*1446 simon1\.millis_counter\[3\]
*1447 simon1\.millis_counter\[4\]
*1448 simon1\.millis_counter\[5\]
*1449 simon1\.millis_counter\[6\]
*1450 simon1\.millis_counter\[7\]
*1451 simon1\.millis_counter\[8\]
*1452 simon1\.millis_counter\[9\]
*1453 simon1\.next_random\[0\]
*1454 simon1\.next_random\[1\]
*1455 simon1\.play1\.freq\[0\]
*1456 simon1\.play1\.freq\[1\]
*1457 simon1\.play1\.freq\[2\]
*1458 simon1\.play1\.freq\[3\]
*1459 simon1\.play1\.freq\[4\]
*1460 simon1\.play1\.freq\[5\]
*1461 simon1\.play1\.freq\[6\]
*1462 simon1\.play1\.freq\[7\]
*1463 simon1\.play1\.freq\[8\]
*1464 simon1\.play1\.freq\[9\]
*1465 simon1\.play1\.tick_counter\[0\]
*1466 simon1\.play1\.tick_counter\[10\]
*1467 simon1\.play1\.tick_counter\[11\]
*1468 simon1\.play1\.tick_counter\[12\]
*1469 simon1\.play1\.tick_counter\[13\]
*1470 simon1\.play1\.tick_counter\[14\]
*1471 simon1\.play1\.tick_counter\[15\]
*1472 simon1\.play1\.tick_counter\[16\]
*1473 simon1\.play1\.tick_counter\[17\]
*1474 simon1\.play1\.tick_counter\[18\]
*1475 simon1\.play1\.tick_counter\[19\]
*1476 simon1\.play1\.tick_counter\[1\]
*1477 simon1\.play1\.tick_counter\[20\]
*1478 simon1\.play1\.tick_counter\[21\]
*1479 simon1\.play1\.tick_counter\[22\]
*1480 simon1\.play1\.tick_counter\[23\]
*1481 simon1\.play1\.tick_counter\[24\]
*1482 simon1\.play1\.tick_counter\[25\]
*1483 simon1\.play1\.tick_counter\[26\]
*1484 simon1\.play1\.tick_counter\[27\]
*1485 simon1\.play1\.tick_counter\[28\]
*1486 simon1\.play1\.tick_counter\[29\]
*1487 simon1\.play1\.tick_counter\[2\]
*1488 simon1\.play1\.tick_counter\[30\]
*1489 simon1\.play1\.tick_counter\[31\]
*1490 simon1\.play1\.tick_counter\[3\]
*1491 simon1\.play1\.tick_counter\[4\]
*1492 simon1\.play1\.tick_counter\[5\]
*1493 simon1\.play1\.tick_counter\[6\]
*1494 simon1\.play1\.tick_counter\[7\]
*1495 simon1\.play1\.tick_counter\[8\]
*1496 simon1\.play1\.tick_counter\[9\]
*1497 simon1\.score1\.active_digit
*1498 simon1\.score1\.ena
*1499 simon1\.score1\.inc
*1500 simon1\.score1\.ones\[0\]
*1501 simon1\.score1\.ones\[1\]
*1502 simon1\.score1\.ones\[2\]
*1503 simon1\.score1\.ones\[3\]
*1504 simon1\.score1\.tens\[0\]
*1505 simon1\.score1\.tens\[1\]
*1506 simon1\.score1\.tens\[2\]
*1507 simon1\.score1\.tens\[3\]
*1508 simon1\.score_rst
*1509 simon1\.seq\[0\]\[0\]
*1510 simon1\.seq\[0\]\[1\]
*1511 simon1\.seq\[10\]\[0\]
*1512 simon1\.seq\[10\]\[1\]
*1513 simon1\.seq\[11\]\[0\]
*1514 simon1\.seq\[11\]\[1\]
*1515 simon1\.seq\[12\]\[0\]
*1516 simon1\.seq\[12\]\[1\]
*1517 simon1\.seq\[13\]\[0\]
*1518 simon1\.seq\[13\]\[1\]
*1519 simon1\.seq\[14\]\[0\]
*1520 simon1\.seq\[14\]\[1\]
*1521 simon1\.seq\[15\]\[0\]
*1522 simon1\.seq\[15\]\[1\]
*1523 simon1\.seq\[16\]\[0\]
*1524 simon1\.seq\[16\]\[1\]
*1525 simon1\.seq\[17\]\[0\]
*1526 simon1\.seq\[17\]\[1\]
*1527 simon1\.seq\[18\]\[0\]
*1528 simon1\.seq\[18\]\[1\]
*1529 simon1\.seq\[19\]\[0\]
*1530 simon1\.seq\[19\]\[1\]
*1531 simon1\.seq\[1\]\[0\]
*1532 simon1\.seq\[1\]\[1\]
*1533 simon1\.seq\[20\]\[0\]
*1534 simon1\.seq\[20\]\[1\]
*1535 simon1\.seq\[21\]\[0\]
*1536 simon1\.seq\[21\]\[1\]
*1537 simon1\.seq\[22\]\[0\]
*1538 simon1\.seq\[22\]\[1\]
*1539 simon1\.seq\[23\]\[0\]
*1540 simon1\.seq\[23\]\[1\]
*1541 simon1\.seq\[24\]\[0\]
*1542 simon1\.seq\[24\]\[1\]
*1543 simon1\.seq\[25\]\[0\]
*1544 simon1\.seq\[25\]\[1\]
*1545 simon1\.seq\[26\]\[0\]
*1546 simon1\.seq\[26\]\[1\]
*1547 simon1\.seq\[27\]\[0\]
*1548 simon1\.seq\[27\]\[1\]
*1549 simon1\.seq\[28\]\[0\]
*1550 simon1\.seq\[28\]\[1\]
*1551 simon1\.seq\[29\]\[0\]
*1552 simon1\.seq\[29\]\[1\]
*1553 simon1\.seq\[2\]\[0\]
*1554 simon1\.seq\[2\]\[1\]
*1555 simon1\.seq\[30\]\[0\]
*1556 simon1\.seq\[30\]\[1\]
*1557 simon1\.seq\[31\]\[0\]
*1558 simon1\.seq\[31\]\[1\]
*1559 simon1\.seq\[3\]\[0\]
*1560 simon1\.seq\[3\]\[1\]
*1561 simon1\.seq\[4\]\[0\]
*1562 simon1\.seq\[4\]\[1\]
*1563 simon1\.seq\[5\]\[0\]
*1564 simon1\.seq\[5\]\[1\]
*1565 simon1\.seq\[6\]\[0\]
*1566 simon1\.seq\[6\]\[1\]
*1567 simon1\.seq\[7\]\[0\]
*1568 simon1\.seq\[7\]\[1\]
*1569 simon1\.seq\[8\]\[0\]
*1570 simon1\.seq\[8\]\[1\]
*1571 simon1\.seq\[9\]\[0\]
*1572 simon1\.seq\[9\]\[1\]
*1573 simon1\.seq_counter\[0\]
*1574 simon1\.seq_counter\[1\]
*1575 simon1\.seq_counter\[2\]
*1576 simon1\.seq_counter\[3\]
*1577 simon1\.seq_counter\[4\]
*1578 simon1\.seq_length\[0\]
*1579 simon1\.seq_length\[1\]
*1580 simon1\.seq_length\[2\]
*1581 simon1\.seq_length\[3\]
*1582 simon1\.seq_length\[4\]
*1583 simon1\.state\[0\]
*1584 simon1\.state\[1\]
*1585 simon1\.state\[2\]
*1586 simon1\.state\[3\]
*1587 simon1\.state\[4\]
*1588 simon1\.state\[5\]
*1589 simon1\.state\[6\]
*1590 simon1\.state\[7\]
*1591 simon1\.tick_counter\[0\]
*1592 simon1\.tick_counter\[10\]
*1593 simon1\.tick_counter\[11\]
*1594 simon1\.tick_counter\[12\]
*1595 simon1\.tick_counter\[13\]
*1596 simon1\.tick_counter\[14\]
*1597 simon1\.tick_counter\[15\]
*1598 simon1\.tick_counter\[1\]
*1599 simon1\.tick_counter\[2\]
*1600 simon1\.tick_counter\[3\]
*1601 simon1\.tick_counter\[4\]
*1602 simon1\.tick_counter\[5\]
*1603 simon1\.tick_counter\[6\]
*1604 simon1\.tick_counter\[7\]
*1605 simon1\.tick_counter\[8\]
*1606 simon1\.tick_counter\[9\]
*1607 simon1\.tone_sequence_counter\[0\]
*1608 simon1\.tone_sequence_counter\[1\]
*1609 simon1\.tone_sequence_counter\[2\]
*1610 simon1\.user_input\[0\]
*1611 simon1\.user_input\[1\]
*1612 ANTENNA__1348__I
*1613 ANTENNA__1349__I
*1614 ANTENNA__1363__A3
*1615 ANTENNA__1374__A1
*1616 ANTENNA__1375__A1
*1617 ANTENNA__1375__A2
*1618 ANTENNA__1376__A1
*1619 ANTENNA__1385__A1
*1620 ANTENNA__1414__I
*1621 ANTENNA__1417__I
*1622 ANTENNA__1457__A1
*1623 ANTENNA__1464__I
*1624 ANTENNA__1476__S
*1625 ANTENNA__1484__A1
*1626 ANTENNA__1485__A1
*1627 ANTENNA__1486__A1
*1628 ANTENNA__1486__A2
*1629 ANTENNA__1520__S
*1630 ANTENNA__1526__S
*1631 ANTENNA__1537__A1
*1632 ANTENNA__1538__A1
*1633 ANTENNA__1539__A2
*1634 ANTENNA__1552__B
*1635 ANTENNA__1553__I
*1636 ANTENNA__1555__I
*1637 ANTENNA__1556__A1
*1638 ANTENNA__1557__A1
*1639 ANTENNA__1562__A1
*1640 ANTENNA__1562__B
*1641 ANTENNA__1571__A1
*1642 ANTENNA__1586__B
*1643 ANTENNA__1597__A1
*1644 ANTENNA__1598__B
*1645 ANTENNA__1599__I
*1646 ANTENNA__1600__I
*1647 ANTENNA__1630__A1
*1648 ANTENNA__1636__I
*1649 ANTENNA__1647__A1
*1650 ANTENNA__1653__I
*1651 ANTENNA__1657__I
*1652 ANTENNA__1664__I
*1653 ANTENNA__1673__I
*1654 ANTENNA__1674__A2
*1655 ANTENNA__1682__A2
*1656 ANTENNA__1689__A1
*1657 ANTENNA__1698__A1
*1658 ANTENNA__1703__I
*1659 ANTENNA__1704__A2
*1660 ANTENNA__1707__I
*1661 ANTENNA__1711__A2
*1662 ANTENNA__1716__A1
*1663 ANTENNA__1722__I
*1664 ANTENNA__1727__A1
*1665 ANTENNA__1727__A2
*1666 ANTENNA__1732__I
*1667 ANTENNA__1733__A1
*1668 ANTENNA__1733__A2
*1669 ANTENNA__1736__I
*1670 ANTENNA__1740__A1
*1671 ANTENNA__1740__A2
*1672 ANTENNA__1745__A1
*1673 ANTENNA__1745__A2
*1674 ANTENNA__1751__A1
*1675 ANTENNA__1758__A1
*1676 ANTENNA__1758__A2
*1677 ANTENNA__1773__C
*1678 ANTENNA__1783__I
*1679 ANTENNA__1785__A1
*1680 ANTENNA__1786__A1
*1681 ANTENNA__1787__I
*1682 ANTENNA__1806__A1
*1683 ANTENNA__1819__I
*1684 ANTENNA__1820__B
*1685 ANTENNA__1824__B
*1686 ANTENNA__1830__A1
*1687 ANTENNA__1839__A1
*1688 ANTENNA__1840__I
*1689 ANTENNA__1847__A1
*1690 ANTENNA__1853__B
*1691 ANTENNA__1859__A1
*1692 ANTENNA__1867__I
*1693 ANTENNA__1912__A1
*1694 ANTENNA__1915__I
*1695 ANTENNA__1919__B
*1696 ANTENNA__1920__A2
*1697 ANTENNA__1920__C
*1698 ANTENNA__1930__I
*1699 ANTENNA__1931__A2
*1700 ANTENNA__1931__B
*1701 ANTENNA__1943__A1
*1702 ANTENNA__1945__I
*1703 ANTENNA__1946__A2
*1704 ANTENNA__1948__A1
*1705 ANTENNA__1951__A1
*1706 ANTENNA__1952__A1
*1707 ANTENNA__1956__A2
*1708 ANTENNA__1969__A1
*1709 ANTENNA__1971__A2
*1710 ANTENNA__1971__C
*1711 ANTENNA__1974__I
*1712 ANTENNA__1975__B
*1713 ANTENNA__1981__B
*1714 ANTENNA__1983__A2
*1715 ANTENNA__1983__C
*1716 ANTENNA__1995__A1
*1717 ANTENNA__1996__A2
*1718 ANTENNA__1996__C
*1719 ANTENNA__2001__A1
*1720 ANTENNA__2002__A2
*1721 ANTENNA__2002__C
*1722 ANTENNA__2012__A1
*1723 ANTENNA__2013__B
*1724 ANTENNA__2016__A2
*1725 ANTENNA__2016__C
*1726 ANTENNA__2027__A2
*1727 ANTENNA__2028__A1
*1728 ANTENNA__2034__B
*1729 ANTENNA__2035__A2
*1730 ANTENNA__2035__C
*1731 ANTENNA__2040__B2
*1732 ANTENNA__2040__C
*1733 ANTENNA__2041__A2
*1734 ANTENNA__2041__C
*1735 ANTENNA__2045__A1
*1736 ANTENNA__2057__A1
*1737 ANTENNA__2058__A2
*1738 ANTENNA__2058__C
*1739 ANTENNA__2063__B
*1740 ANTENNA__2065__B
*1741 ANTENNA__2066__C
*1742 ANTENNA__2076__A2
*1743 ANTENNA__2076__B
*1744 ANTENNA__2078__A1
*1745 ANTENNA__2079__A1
*1746 ANTENNA__2091__B
*1747 ANTENNA__2093__A2
*1748 ANTENNA__2094__A1
*1749 ANTENNA__2098__B
*1750 ANTENNA__2100__A2
*1751 ANTENNA__2100__C
*1752 ANTENNA__2109__A1
*1753 ANTENNA__2110__A2
*1754 ANTENNA__2110__B
*1755 ANTENNA__2118__A1
*1756 ANTENNA__2119__C
*1757 ANTENNA__2124__C
*1758 ANTENNA__2126__A2
*1759 ANTENNA__2131__A1
*1760 ANTENNA__2133__C
*1761 ANTENNA__2140__C
*1762 ANTENNA__2145__A2
*1763 ANTENNA__2145__C
*1764 ANTENNA__2148__A1
*1765 ANTENNA__2149__A1
*1766 ANTENNA__2149__A2
*1767 ANTENNA__2150__A1
*1768 ANTENNA__2150__A2
*1769 ANTENNA__2153__A1
*1770 ANTENNA__2154__A1
*1771 ANTENNA__2158__A2
*1772 ANTENNA__2159__A2
*1773 ANTENNA__2160__I
*1774 ANTENNA__2163__A3
*1775 ANTENNA__2167__B
*1776 ANTENNA__2182__A1
*1777 ANTENNA__2182__A2
*1778 ANTENNA__2191__B2
*1779 ANTENNA__2211__A1
*1780 ANTENNA__2214__B2
*1781 ANTENNA__2219__I
*1782 ANTENNA__2220__I
*1783 ANTENNA__2247__B
*1784 ANTENNA__2264__A1
*1785 ANTENNA__2265__A1
*1786 ANTENNA__2268__B
*1787 ANTENNA__2269__A1
*1788 ANTENNA__2278__B
*1789 ANTENNA__2285__I
*1790 ANTENNA__2286__B
*1791 ANTENNA__2290__A1
*1792 ANTENNA__2297__B2
*1793 ANTENNA__2298__A1
*1794 ANTENNA__2316__A1
*1795 ANTENNA__2317__A1
*1796 ANTENNA__2318__C
*1797 ANTENNA__2319__A1
*1798 ANTENNA__2321__A1
*1799 ANTENNA__2321__A2
*1800 ANTENNA__2329__A1
*1801 ANTENNA__2332__A1
*1802 ANTENNA__2337__B
*1803 ANTENNA__2338__A1
*1804 ANTENNA__2345__A2
*1805 ANTENNA__2345__B
*1806 ANTENNA__2357__B
*1807 ANTENNA__2360__A1
*1808 ANTENNA__2415__B
*1809 ANTENNA__2416__A1
*1810 ANTENNA__2429__A1
*1811 ANTENNA__2447__C
*1812 ANTENNA__2458__A1
*1813 ANTENNA__2465__A1
*1814 ANTENNA__2470__A1
*1815 ANTENNA__2471__I
*1816 ANTENNA__2472__A1
*1817 ANTENNA__2475__I
*1818 ANTENNA__2478__I
*1819 ANTENNA__2479__A2
*1820 ANTENNA__2482__I
*1821 ANTENNA__2485__A1
*1822 ANTENNA__2491__A2
*1823 ANTENNA__2498__A1
*1824 ANTENNA__2504__A1
*1825 ANTENNA__2509__A1
*1826 ANTENNA__2509__A2
*1827 ANTENNA__2514__A1
*1828 ANTENNA__2519__I
*1829 ANTENNA__2520__A1
*1830 ANTENNA__2523__I
*1831 ANTENNA__2526__A1
*1832 ANTENNA__2531__I
*1833 ANTENNA__2532__A1
*1834 ANTENNA__2532__A2
*1835 ANTENNA__2535__I
*1836 ANTENNA__2538__A1
*1837 ANTENNA__2538__A2
*1838 ANTENNA__2543__A1
*1839 ANTENNA__2543__A2
*1840 ANTENNA__2548__A1
*1841 ANTENNA__2553__A1
*1842 ANTENNA__2558__I
*1843 ANTENNA__2559__A1
*1844 ANTENNA__2564__A1
*1845 ANTENNA__2569__CLK
*1846 ANTENNA__2570__CLK
*1847 ANTENNA__2571__CLK
*1848 ANTENNA__2572__CLK
*1849 ANTENNA__2573__CLK
*1850 ANTENNA__2574__CLK
*1851 ANTENNA__2575__CLK
*1852 ANTENNA__2576__CLK
*1853 ANTENNA__2577__CLK
*1854 ANTENNA__2578__CLK
*1855 ANTENNA__2579__CLK
*1856 ANTENNA__2580__CLK
*1857 ANTENNA__2581__CLK
*1858 ANTENNA__2582__CLK
*1859 ANTENNA__2583__CLK
*1860 ANTENNA__2584__CLK
*1861 ANTENNA__2585__CLK
*1862 ANTENNA__2586__CLK
*1863 ANTENNA__2588__CLK
*1864 ANTENNA__2589__CLK
*1865 ANTENNA__2590__CLK
*1866 ANTENNA__2591__CLK
*1867 ANTENNA__2592__CLK
*1868 ANTENNA__2593__CLK
*1869 ANTENNA__2594__CLK
*1870 ANTENNA__2595__CLK
*1871 ANTENNA__2596__CLK
*1872 ANTENNA__2597__CLK
*1873 ANTENNA__2598__CLK
*1874 ANTENNA__2599__CLK
*1875 ANTENNA__2600__CLK
*1876 ANTENNA__2601__CLK
*1877 ANTENNA__2602__CLK
*1878 ANTENNA__2603__CLK