*SPEF "ieee 1481-1999"
*DESIGN "user_project_wrapper"
*DATE "11:11:11 Fri 11 11, 1111"
*VENDOR "OpenRCX"
*PROGRAM "Parallel Extraction"
*VERSION "1.0"
*DESIGN_FLOW "NAME_SCOPE LOCAL" "PIN_CAP NONE"
*DIVIDER /
*DELIMITER :
*BUS_DELIMITER []
*T_UNIT 1 NS
*C_UNIT 1 PF
*R_UNIT 1 OHM
*L_UNIT 1 HENRY

*NAME_MAP
*1 io_in[0]
*2 io_in[10]
*3 io_in[11]
*4 io_in[12]
*5 io_in[13]
*6 io_in[14]
*7 io_in[15]
*8 io_in[16]
*9 io_in[17]
*10 io_in[18]
*11 io_in[19]
*12 io_in[1]
*13 io_in[20]
*14 io_in[21]
*15 io_in[22]
*16 io_in[23]
*17 io_in[24]
*18 io_in[25]
*19 io_in[26]
*20 io_in[27]
*21 io_in[28]
*22 io_in[29]
*23 io_in[2]
*24 io_in[30]
*25 io_in[31]
*26 io_in[32]
*27 io_in[33]
*28 io_in[34]
*29 io_in[35]
*30 io_in[36]
*31 io_in[37]
*32 io_in[3]
*33 io_in[4]
*34 io_in[5]
*35 io_in[6]
*36 io_in[7]
*37 io_in[8]
*38 io_in[9]
*39 io_oeb[0]
*40 io_oeb[10]
*41 io_oeb[11]
*42 io_oeb[12]
*43 io_oeb[13]
*44 io_oeb[14]
*45 io_oeb[15]
*46 io_oeb[16]
*47 io_oeb[17]
*48 io_oeb[18]
*49 io_oeb[19]
*50 io_oeb[1]
*51 io_oeb[20]
*52 io_oeb[21]
*53 io_oeb[22]
*54 io_oeb[23]
*55 io_oeb[24]
*56 io_oeb[25]
*57 io_oeb[26]
*58 io_oeb[27]
*59 io_oeb[28]
*60 io_oeb[29]
*61 io_oeb[2]
*62 io_oeb[30]
*63 io_oeb[31]
*64 io_oeb[32]
*65 io_oeb[33]
*66 io_oeb[34]
*67 io_oeb[35]
*68 io_oeb[36]
*69 io_oeb[37]
*70 io_oeb[3]
*71 io_oeb[4]
*72 io_oeb[5]
*73 io_oeb[6]
*74 io_oeb[7]
*75 io_oeb[8]
*76 io_oeb[9]
*77 io_out[0]
*78 io_out[10]
*79 io_out[11]
*80 io_out[12]
*81 io_out[13]
*82 io_out[14]
*83 io_out[15]
*84 io_out[16]
*85 io_out[17]
*86 io_out[18]
*87 io_out[19]
*88 io_out[1]
*89 io_out[20]
*90 io_out[21]
*91 io_out[22]
*92 io_out[23]
*93 io_out[24]
*94 io_out[25]
*95 io_out[26]
*96 io_out[27]
*97 io_out[28]
*98 io_out[29]
*99 io_out[2]
*100 io_out[30]
*101 io_out[31]
*102 io_out[32]
*103 io_out[33]
*104 io_out[34]
*105 io_out[35]
*106 io_out[36]
*107 io_out[37]
*108 io_out[3]
*109 io_out[4]
*110 io_out[5]
*111 io_out[6]
*112 io_out[7]
*113 io_out[8]
*114 io_out[9]
*115 la_data_in[0]
*116 la_data_in[10]
*117 la_data_in[11]
*118 la_data_in[12]
*119 la_data_in[13]
*120 la_data_in[14]
*121 la_data_in[15]
*122 la_data_in[16]
*123 la_data_in[17]
*124 la_data_in[18]
*125 la_data_in[19]
*126 la_data_in[1]
*127 la_data_in[20]
*128 la_data_in[21]
*129 la_data_in[22]
*130 la_data_in[23]
*131 la_data_in[24]
*132 la_data_in[25]
*133 la_data_in[26]
*134 la_data_in[27]
*135 la_data_in[28]
*136 la_data_in[29]
*137 la_data_in[2]
*138 la_data_in[30]
*139 la_data_in[31]
*140 la_data_in[32]
*141 la_data_in[33]
*142 la_data_in[34]
*143 la_data_in[35]
*144 la_data_in[36]
*145 la_data_in[37]
*146 la_data_in[38]
*147 la_data_in[39]
*148 la_data_in[3]
*149 la_data_in[40]
*150 la_data_in[41]
*151 la_data_in[42]
*152 la_data_in[43]
*153 la_data_in[44]
*154 la_data_in[45]
*155 la_data_in[46]
*156 la_data_in[47]
*157 la_data_in[48]
*158 la_data_in[49]
*159 la_data_in[4]
*160 la_data_in[50]
*161 la_data_in[51]
*162 la_data_in[52]
*163 la_data_in[53]
*164 la_data_in[54]
*165 la_data_in[55]
*166 la_data_in[56]
*167 la_data_in[57]
*168 la_data_in[58]
*169 la_data_in[59]
*170 la_data_in[5]
*171 la_data_in[60]
*172 la_data_in[61]
*173 la_data_in[62]
*174 la_data_in[63]
*175 la_data_in[6]
*176 la_data_in[7]
*177 la_data_in[8]
*178 la_data_in[9]
*179 la_data_out[0]
*180 la_data_out[10]
*181 la_data_out[11]
*182 la_data_out[12]
*183 la_data_out[13]
*184 la_data_out[14]
*185 la_data_out[15]
*186 la_data_out[16]
*187 la_data_out[17]
*188 la_data_out[18]
*189 la_data_out[19]
*190 la_data_out[1]
*191 la_data_out[20]
*192 la_data_out[21]
*193 la_data_out[22]
*194 la_data_out[23]
*195 la_data_out[24]
*196 la_data_out[25]
*197 la_data_out[26]
*198 la_data_out[27]
*199 la_data_out[28]
*200 la_data_out[29]
*201 la_data_out[2]
*202 la_data_out[30]
*203 la_data_out[31]
*204 la_data_out[32]
*205 la_data_out[33]
*206 la_data_out[34]
*207 la_data_out[35]
*208 la_data_out[36]
*209 la_data_out[37]
*210 la_data_out[38]
*211 la_data_out[39]
*212 la_data_out[3]
*213 la_data_out[40]
*214 la_data_out[41]
*215 la_data_out[42]
*216 la_data_out[43]
*217 la_data_out[44]
*218 la_data_out[45]
*219 la_data_out[46]
*220 la_data_out[47]
*221 la_data_out[48]
*222 la_data_out[49]
*223 la_data_out[4]
*224 la_data_out[50]
*225 la_data_out[51]
*226 la_data_out[52]
*227 la_data_out[53]
*228 la_data_out[54]
*229 la_data_out[55]
*230 la_data_out[56]
*231 la_data_out[57]
*232 la_data_out[58]
*233 la_data_out[59]
*234 la_data_out[5]
*235 la_data_out[60]
*236 la_data_out[61]
*237 la_data_out[62]
*238 la_data_out[63]
*239 la_data_out[6]
*240 la_data_out[7]
*241 la_data_out[8]
*242 la_data_out[9]
*243 la_oenb[0]
*244 la_oenb[10]
*245 la_oenb[11]
*246 la_oenb[12]
*247 la_oenb[13]
*248 la_oenb[14]
*249 la_oenb[15]
*250 la_oenb[16]
*251 la_oenb[17]
*252 la_oenb[18]
*253 la_oenb[19]
*254 la_oenb[1]
*255 la_oenb[20]
*256 la_oenb[21]
*257 la_oenb[22]
*258 la_oenb[23]
*259 la_oenb[24]
*260 la_oenb[25]
*261 la_oenb[26]
*262 la_oenb[27]
*263 la_oenb[28]
*264 la_oenb[29]
*265 la_oenb[2]
*266 la_oenb[30]
*267 la_oenb[31]
*268 la_oenb[32]
*269 la_oenb[33]
*270 la_oenb[34]
*271 la_oenb[35]
*272 la_oenb[36]
*273 la_oenb[37]
*274 la_oenb[38]
*275 la_oenb[39]
*276 la_oenb[3]
*277 la_oenb[40]
*278 la_oenb[41]
*279 la_oenb[42]
*280 la_oenb[43]
*281 la_oenb[44]
*282 la_oenb[45]
*283 la_oenb[46]
*284 la_oenb[47]
*285 la_oenb[48]
*286 la_oenb[49]
*287 la_oenb[4]
*288 la_oenb[50]
*289 la_oenb[51]
*290 la_oenb[52]
*291 la_oenb[53]
*292 la_oenb[54]
*293 la_oenb[55]
*294 la_oenb[56]
*295 la_oenb[57]
*296 la_oenb[58]
*297 la_oenb[59]
*298 la_oenb[5]
*299 la_oenb[60]
*300 la_oenb[61]
*301 la_oenb[62]
*302 la_oenb[63]
*303 la_oenb[6]
*304 la_oenb[7]
*305 la_oenb[8]
*306 la_oenb[9]
*307 user_clock2
*308 user_irq[0]
*309 user_irq[1]
*310 user_irq[2]
*313 wb_clk_i
*314 wb_rst_i
*315 wbs_ack_o
*316 wbs_adr_i[0]
*317 wbs_adr_i[10]
*318 wbs_adr_i[11]
*319 wbs_adr_i[12]
*320 wbs_adr_i[13]
*321 wbs_adr_i[14]
*322 wbs_adr_i[15]
*323 wbs_adr_i[16]
*324 wbs_adr_i[17]
*325 wbs_adr_i[18]
*326 wbs_adr_i[19]
*327 wbs_adr_i[1]
*328 wbs_adr_i[20]
*329 wbs_adr_i[21]
*330 wbs_adr_i[22]
*331 wbs_adr_i[23]
*332 wbs_adr_i[24]
*333 wbs_adr_i[25]
*334 wbs_adr_i[26]
*335 wbs_adr_i[27]
*336 wbs_adr_i[28]
*337 wbs_adr_i[29]
*338 wbs_adr_i[2]
*339 wbs_adr_i[30]
*340 wbs_adr_i[31]
*341 wbs_adr_i[3]
*342 wbs_adr_i[4]
*343 wbs_adr_i[5]
*344 wbs_adr_i[6]
*345 wbs_adr_i[7]
*346 wbs_adr_i[8]
*347 wbs_adr_i[9]
*348 wbs_cyc_i
*349 wbs_dat_i[0]
*350 wbs_dat_i[10]
*351 wbs_dat_i[11]
*352 wbs_dat_i[12]
*353 wbs_dat_i[13]
*354 wbs_dat_i[14]
*355 wbs_dat_i[15]
*356 wbs_dat_i[16]
*357 wbs_dat_i[17]
*358 wbs_dat_i[18]
*359 wbs_dat_i[19]
*360 wbs_dat_i[1]
*361 wbs_dat_i[20]
*362 wbs_dat_i[21]
*363 wbs_dat_i[22]
*364 wbs_dat_i[23]
*365 wbs_dat_i[24]
*366 wbs_dat_i[25]
*367 wbs_dat_i[26]
*368 wbs_dat_i[27]
*369 wbs_dat_i[28]
*370 wbs_dat_i[29]
*371 wbs_dat_i[2]
*372 wbs_dat_i[30]
*373 wbs_dat_i[31]
*374 wbs_dat_i[3]
*375 wbs_dat_i[4]
*376 wbs_dat_i[5]
*377 wbs_dat_i[6]
*378 wbs_dat_i[7]
*379 wbs_dat_i[8]
*380 wbs_dat_i[9]
*381 wbs_dat_o[0]
*382 wbs_dat_o[10]
*383 wbs_dat_o[11]
*384 wbs_dat_o[12]
*385 wbs_dat_o[13]
*386 wbs_dat_o[14]
*387 wbs_dat_o[15]
*388 wbs_dat_o[16]
*389 wbs_dat_o[17]
*390 wbs_dat_o[18]
*391 wbs_dat_o[19]
*392 wbs_dat_o[1]
*393 wbs_dat_o[20]
*394 wbs_dat_o[21]
*395 wbs_dat_o[22]
*396 wbs_dat_o[23]
*397 wbs_dat_o[24]
*398 wbs_dat_o[25]
*399 wbs_dat_o[26]
*400 wbs_dat_o[27]
*401 wbs_dat_o[28]
*402 wbs_dat_o[29]
*403 wbs_dat_o[2]
*404 wbs_dat_o[30]
*405 wbs_dat_o[31]
*406 wbs_dat_o[3]
*407 wbs_dat_o[4]
*408 wbs_dat_o[5]
*409 wbs_dat_o[6]
*410 wbs_dat_o[7]
*411 wbs_dat_o[8]
*412 wbs_dat_o[9]
*413 wbs_sel_i[0]
*414 wbs_sel_i[1]
*415 wbs_sel_i[2]
*416 wbs_sel_i[3]
*417 wbs_stb_i
*418 wbs_we_i
*419 diego_clk
*420 diego_io_in_all38\[0\]
*421 diego_io_in_all38\[10\]
*422 diego_io_in_all38\[11\]
*423 diego_io_in_all38\[12\]
*424 diego_io_in_all38\[13\]
*425 diego_io_in_all38\[14\]
*426 diego_io_in_all38\[15\]
*427 diego_io_in_all38\[16\]
*428 diego_io_in_all38\[17\]
*429 diego_io_in_all38\[18\]
*430 diego_io_in_all38\[19\]
*431 diego_io_in_all38\[1\]
*432 diego_io_in_all38\[20\]
*433 diego_io_in_all38\[21\]
*434 diego_io_in_all38\[22\]
*435 diego_io_in_all38\[23\]
*436 diego_io_in_all38\[24\]
*437 diego_io_in_all38\[25\]
*438 diego_io_in_all38\[26\]
*439 diego_io_in_all38\[27\]
*440 diego_io_in_all38\[28\]
*441 diego_io_in_all38\[29\]
*442 diego_io_in_all38\[2\]
*443 diego_io_in_all38\[30\]
*444 diego_io_in_all38\[31\]
*445 diego_io_in_all38\[32\]
*446 diego_io_in_all38\[33\]
*447 diego_io_in_all38\[34\]
*448 diego_io_in_all38\[35\]
*449 diego_io_in_all38\[36\]
*450 diego_io_in_all38\[37\]
*451 diego_io_in_all38\[3\]
*452 diego_io_in_all38\[4\]
*453 diego_io_in_all38\[5\]
*454 diego_io_in_all38\[6\]
*455 diego_io_in_all38\[7\]
*456 diego_io_in_all38\[8\]
*457 diego_io_in_all38\[9\]
*458 diego_io_oeb\[0\]
*459 diego_io_oeb\[10\]
*460 diego_io_oeb\[11\]
*461 diego_io_oeb\[12\]
*462 diego_io_oeb\[13\]
*463 diego_io_oeb\[14\]
*464 diego_io_oeb\[15\]
*465 diego_io_oeb\[16\]
*466 diego_io_oeb\[17\]
*467 diego_io_oeb\[18\]
*468 diego_io_oeb\[19\]
*469 diego_io_oeb\[1\]
*470 diego_io_oeb\[20\]
*471 diego_io_oeb\[21\]
*472 diego_io_oeb\[22\]
*473 diego_io_oeb\[23\]
*474 diego_io_oeb\[24\]
*475 diego_io_oeb\[25\]
*476 diego_io_oeb\[26\]
*477 diego_io_oeb\[27\]
*478 diego_io_oeb\[28\]
*479 diego_io_oeb\[29\]
*480 diego_io_oeb\[2\]
*481 diego_io_oeb\[30\]
*482 diego_io_oeb\[31\]
*483 diego_io_oeb\[3\]
*484 diego_io_oeb\[4\]
*485 diego_io_oeb\[5\]
*486 diego_io_oeb\[6\]
*487 diego_io_oeb\[7\]
*488 diego_io_oeb\[8\]
*489 diego_io_oeb\[9\]
*490 diego_io_out\[0\]
*491 diego_io_out\[10\]
*492 diego_io_out\[11\]
*493 diego_io_out\[12\]
*494 diego_io_out\[13\]
*495 diego_io_out\[14\]
*496 diego_io_out\[15\]
*497 diego_io_out\[16\]
*498 diego_io_out\[17\]
*499 diego_io_out\[18\]
*500 diego_io_out\[19\]
*501 diego_io_out\[1\]
*502 diego_io_out\[20\]
*503 diego_io_out\[21\]
*504 diego_io_out\[22\]
*505 diego_io_out\[23\]
*506 diego_io_out\[24\]
*507 diego_io_out\[25\]
*508 diego_io_out\[26\]
*509 diego_io_out\[27\]
*510 diego_io_out\[28\]
*511 diego_io_out\[29\]
*512 diego_io_out\[2\]
*513 diego_io_out\[30\]
*514 diego_io_out\[31\]
*515 diego_io_out\[3\]
*516 diego_io_out\[4\]
*517 diego_io_out\[5\]
*518 diego_io_out\[6\]
*519 diego_io_out\[7\]
*520 diego_io_out\[8\]
*521 diego_io_out\[9\]
*522 pawel_clk
*523 pawel_io_in_all38\[0\]
*524 pawel_io_in_all38\[10\]
*525 pawel_io_in_all38\[11\]
*526 pawel_io_in_all38\[12\]
*527 pawel_io_in_all38\[13\]
*528 pawel_io_in_all38\[14\]
*529 pawel_io_in_all38\[15\]
*530 pawel_io_in_all38\[16\]
*531 pawel_io_in_all38\[17\]
*532 pawel_io_in_all38\[18\]
*533 pawel_io_in_all38\[19\]
*534 pawel_io_in_all38\[1\]
*535 pawel_io_in_all38\[20\]
*536 pawel_io_in_all38\[21\]
*537 pawel_io_in_all38\[22\]
*538 pawel_io_in_all38\[23\]
*539 pawel_io_in_all38\[24\]
*540 pawel_io_in_all38\[25\]
*541 pawel_io_in_all38\[26\]
*542 pawel_io_in_all38\[27\]
*543 pawel_io_in_all38\[28\]
*544 pawel_io_in_all38\[29\]
*545 pawel_io_in_all38\[2\]
*546 pawel_io_in_all38\[30\]
*547 pawel_io_in_all38\[31\]
*548 pawel_io_in_all38\[32\]
*549 pawel_io_in_all38\[33\]
*550 pawel_io_in_all38\[34\]
*551 pawel_io_in_all38\[35\]
*552 pawel_io_in_all38\[36\]
*553 pawel_io_in_all38\[37\]
*554 pawel_io_in_all38\[3\]
*555 pawel_io_in_all38\[4\]
*556 pawel_io_in_all38\[5\]
*557 pawel_io_in_all38\[6\]
*558 pawel_io_in_all38\[7\]
*559 pawel_io_in_all38\[8\]
*560 pawel_io_in_all38\[9\]
*561 pawel_io_oeb\[0\]
*562 pawel_io_oeb\[10\]
*563 pawel_io_oeb\[11\]
*564 pawel_io_oeb\[12\]
*565 pawel_io_oeb\[1\]
*566 pawel_io_oeb\[2\]
*567 pawel_io_oeb\[3\]
*568 pawel_io_oeb\[4\]
*569 pawel_io_oeb\[5\]
*570 pawel_io_oeb\[6\]
*571 pawel_io_oeb\[7\]
*572 pawel_io_oeb\[8\]
*573 pawel_io_oeb\[9\]
*574 pawel_io_out\[0\]
*575 pawel_io_out\[10\]
*576 pawel_io_out\[11\]
*577 pawel_io_out\[12\]
*578 pawel_io_out\[1\]
*579 pawel_io_out\[2\]
*580 pawel_io_out\[3\]
*581 pawel_io_out\[4\]
*582 pawel_io_out\[5\]
*583 pawel_io_out\[6\]
*584 pawel_io_out\[7\]
*585 pawel_io_out\[8\]
*586 pawel_io_out\[9\]
*587 pawel_la_in\[0\]
*588 pawel_la_in\[10\]
*589 pawel_la_in\[11\]
*590 pawel_la_in\[12\]
*591 pawel_la_in\[13\]
*592 pawel_la_in\[14\]
*593 pawel_la_in\[15\]
*594 pawel_la_in\[1\]
*595 pawel_la_in\[2\]
*596 pawel_la_in\[3\]
*597 pawel_la_in\[4\]
*598 pawel_la_in\[5\]
*599 pawel_la_in\[6\]
*600 pawel_la_in\[7\]
*601 pawel_la_in\[8\]
*602 pawel_la_in\[9\]
*603 pawel_mux_rst
*604 trzf2_clk
*605 trzf2_ena
*606 trzf2_io_in\[0\]
*607 trzf2_io_in\[10\]
*608 trzf2_io_in\[11\]
*609 trzf2_io_in\[12\]
*610 trzf2_io_in\[13\]
*611 trzf2_io_in\[14\]
*612 trzf2_io_in\[15\]
*613 trzf2_io_in\[16\]
*614 trzf2_io_in\[17\]
*615 trzf2_io_in\[18\]
*616 trzf2_io_in\[19\]
*617 trzf2_io_in\[1\]
*618 trzf2_io_in\[20\]
*619 trzf2_io_in\[21\]
*620 trzf2_io_in\[22\]
*621 trzf2_io_in\[23\]
*622 trzf2_io_in\[24\]
*623 trzf2_io_in\[25\]
*624 trzf2_io_in\[26\]
*625 trzf2_io_in\[27\]
*626 trzf2_io_in\[28\]
*627 trzf2_io_in\[29\]
*628 trzf2_io_in\[2\]
*629 trzf2_io_in\[30\]
*630 trzf2_io_in\[31\]
*631 trzf2_io_in\[32\]
*632 trzf2_io_in\[33\]
*633 trzf2_io_in\[34\]
*634 trzf2_io_in\[35\]
*635 trzf2_io_in\[36\]
*636 trzf2_io_in\[37\]
*637 trzf2_io_in\[3\]
*638 trzf2_io_in\[4\]
*639 trzf2_io_in\[5\]
*640 trzf2_io_in\[6\]
*641 trzf2_io_in\[7\]
*642 trzf2_io_in\[8\]
*643 trzf2_io_in\[9\]
*644 trzf2_la_in\[0\]
*645 trzf2_la_in\[10\]
*646 trzf2_la_in\[11\]
*647 trzf2_la_in\[12\]
*648 trzf2_la_in\[1\]
*649 trzf2_la_in\[2\]
*650 trzf2_la_in\[3\]
*651 trzf2_la_in\[4\]
*652 trzf2_la_in\[5\]
*653 trzf2_la_in\[6\]
*654 trzf2_la_in\[7\]
*655 trzf2_la_in\[8\]
*656 trzf2_la_in\[9\]
*657 trzf2_o_gpout\[0\]
*658 trzf2_o_gpout\[1\]
*659 trzf2_o_gpout\[2\]
*660 trzf2_o_hsync
*661 trzf2_o_rgb\[0\]
*662 trzf2_o_rgb\[1\]
*663 trzf2_o_rgb\[2\]
*664 trzf2_o_rgb\[3\]
*665 trzf2_o_rgb\[4\]
*666 trzf2_o_rgb\[5\]
*667 trzf2_o_tex_csb
*668 trzf2_o_tex_oeb0
*669 trzf2_o_tex_out0
*670 trzf2_o_tex_sclk
*671 trzf2_o_vsync
*672 trzf2_rst
*673 trzf_clk
*674 trzf_ena
*675 trzf_io_in\[0\]
*676 trzf_io_in\[10\]
*677 trzf_io_in\[11\]
*678 trzf_io_in\[12\]
*679 trzf_io_in\[13\]
*680 trzf_io_in\[14\]
*681 trzf_io_in\[15\]
*682 trzf_io_in\[16\]
*683 trzf_io_in\[17\]
*684 trzf_io_in\[18\]
*685 trzf_io_in\[19\]
*686 trzf_io_in\[1\]
*687 trzf_io_in\[20\]
*688 trzf_io_in\[21\]
*689 trzf_io_in\[22\]
*690 trzf_io_in\[23\]
*691 trzf_io_in\[24\]
*692 trzf_io_in\[25\]
*693 trzf_io_in\[26\]
*694 trzf_io_in\[27\]
*695 trzf_io_in\[28\]
*696 trzf_io_in\[29\]
*697 trzf_io_in\[2\]
*698 trzf_io_in\[30\]
*699 trzf_io_in\[31\]
*700 trzf_io_in\[32\]
*701 trzf_io_in\[33\]
*702 trzf_io_in\[34\]
*703 trzf_io_in\[35\]
*704 trzf_io_in\[36\]
*705 trzf_io_in\[37\]
*706 trzf_io_in\[3\]
*707 trzf_io_in\[4\]
*708 trzf_io_in\[5\]
*709 trzf_io_in\[6\]
*710 trzf_io_in\[7\]
*711 trzf_io_in\[8\]
*712 trzf_io_in\[9\]
*713 trzf_la_in\[0\]
*714 trzf_la_in\[10\]
*715 trzf_la_in\[11\]
*716 trzf_la_in\[12\]
*717 trzf_la_in\[1\]
*718 trzf_la_in\[2\]
*719 trzf_la_in\[3\]
*720 trzf_la_in\[4\]
*721 trzf_la_in\[5\]
*722 trzf_la_in\[6\]
*723 trzf_la_in\[7\]
*724 trzf_la_in\[8\]
*725 trzf_la_in\[9\]
*726 trzf_o_gpout\[0\]
*727 trzf_o_gpout\[1\]
*728 trzf_o_gpout\[2\]
*729 trzf_o_hsync
*730 trzf_o_rgb\[0\]
*731 trzf_o_rgb\[1\]
*732 trzf_o_rgb\[2\]
*733 trzf_o_rgb\[3\]
*734 trzf_o_rgb\[4\]
*735 trzf_o_rgb\[5\]
*736 trzf_o_tex_csb
*737 trzf_o_tex_oeb0
*738 trzf_o_tex_out0
*739 trzf_o_tex_sclk
*740 trzf_o_vsync
*741 trzf_rst
*742 uri_clk
*743 uri_io_in\[0\]
*744 uri_io_in\[10\]
*745 uri_io_in\[11\]
*746 uri_io_in\[12\]
*747 uri_io_in\[13\]
*748 uri_io_in\[14\]
*749 uri_io_in\[15\]
*750 uri_io_in\[16\]
*751 uri_io_in\[17\]
*752 uri_io_in\[18\]
*753 uri_io_in\[19\]
*754 uri_io_in\[1\]
*755 uri_io_in\[20\]
*756 uri_io_in\[21\]
*757 uri_io_in\[22\]
*758 uri_io_in\[23\]
*759 uri_io_in\[24\]
*760 uri_io_in\[25\]
*761 uri_io_in\[26\]
*762 uri_io_in\[27\]
*763 uri_io_in\[28\]
*764 uri_io_in\[29\]
*765 uri_io_in\[2\]
*766 uri_io_in\[30\]
*767 uri_io_in\[31\]
*768 uri_io_in\[32\]
*769 uri_io_in\[33\]
*770 uri_io_in\[34\]
*771 uri_io_in\[35\]
*772 uri_io_in\[36\]
*773 uri_io_in\[37\]
*774 uri_io_in\[3\]
*775 uri_io_in\[4\]
*776 uri_io_in\[5\]
*777 uri_io_in\[6\]
*778 uri_io_in\[7\]
*779 uri_io_in\[8\]
*780 uri_io_in\[9\]
*781 uri_io_oeb\[0\]
*782 uri_io_oeb\[10\]
*783 uri_io_oeb\[11\]
*784 uri_io_oeb\[12\]
*785 uri_io_oeb\[13\]
*786 uri_io_oeb\[14\]
*787 uri_io_oeb\[15\]
*788 uri_io_oeb\[16\]
*789 uri_io_oeb\[17\]
*790 uri_io_oeb\[18\]
*791 uri_io_oeb\[19\]
*792 uri_io_oeb\[1\]
*793 uri_io_oeb\[20\]
*794 uri_io_oeb\[21\]
*795 uri_io_oeb\[22\]
*796 uri_io_oeb\[23\]
*797 uri_io_oeb\[24\]
*798 uri_io_oeb\[25\]
*799 uri_io_oeb\[26\]
*800 uri_io_oeb\[27\]
*801 uri_io_oeb\[28\]
*802 uri_io_oeb\[29\]
*803 uri_io_oeb\[2\]
*804 uri_io_oeb\[30\]
*805 uri_io_oeb\[31\]
*806 uri_io_oeb\[32\]
*807 uri_io_oeb\[33\]
*808 uri_io_oeb\[34\]
*809 uri_io_oeb\[35\]
*810 uri_io_oeb\[36\]
*811 uri_io_oeb\[37\]
*812 uri_io_oeb\[3\]
*813 uri_io_oeb\[4\]
*814 uri_io_oeb\[5\]
*815 uri_io_oeb\[6\]
*816 uri_io_oeb\[7\]
*817 uri_io_oeb\[8\]
*818 uri_io_oeb\[9\]
*819 uri_io_out\[0\]
*820 uri_io_out\[10\]
*821 uri_io_out\[11\]
*822 uri_io_out\[12\]
*823 uri_io_out\[13\]
*824 uri_io_out\[14\]
*825 uri_io_out\[15\]
*826 uri_io_out\[16\]
*827 uri_io_out\[17\]
*828 uri_io_out\[18\]
*829 uri_io_out\[19\]
*830 uri_io_out\[1\]
*831 uri_io_out\[20\]
*832 uri_io_out\[21\]
*833 uri_io_out\[22\]
*834 uri_io_out\[23\]
*835 uri_io_out\[24\]
*836 uri_io_out\[25\]
*837 uri_io_out\[26\]
*838 uri_io_out\[27\]
*839 uri_io_out\[28\]
*840 uri_io_out\[29\]
*841 uri_io_out\[2\]
*842 uri_io_out\[30\]
*843 uri_io_out\[31\]
*844 uri_io_out\[32\]
*845 uri_io_out\[33\]
*846 uri_io_out\[34\]
*847 uri_io_out\[35\]
*848 uri_io_out\[36\]
*849 uri_io_out\[37\]
*850 uri_io_out\[3\]
*851 uri_io_out\[4\]
*852 uri_io_out\[5\]
*853 uri_io_out\[6\]
*854 uri_io_out\[7\]
*855 uri_io_out\[8\]
*856 uri_io_out\[9\]
*857 uri_rst
*858 top_design_mux
*859 top_raybox_zero_fsm
*860 top_raybox_zero_fsm2
*861 urish_simon_says
*862 user_proj_cpu
*863 wrapped_wb_hyperram

*PORTS
io_in[0] I
io_in[10] I
io_in[11] I
io_in[12] I
io_in[13] I
io_in[14] I
io_in[15] I
io_in[16] I
io_in[17] I
io_in[18] I
io_in[19] I
io_in[1] I
io_in[20] I
io_in[21] I
io_in[22] I
io_in[23] I
io_in[24] I
io_in[25] I
io_in[26] I
io_in[27] I
io_in[28] I
io_in[29] I
io_in[2] I
io_in[30] I
io_in[31] I
io_in[32] I
io_in[33] I
io_in[34] I
io_in[35] I
io_in[36] I
io_in[37] I
io_in[3] I
io_in[4] I
io_in[5] I
io_in[6] I
io_in[7] I
io_in[8] I
io_in[9] I
io_oeb[0] O
io_oeb[10] O
io_oeb[11] O
io_oeb[12] O
io_oeb[13] O
io_oeb[14] O
io_oeb[15] O
io_oeb[16] O
io_oeb[17] O
io_oeb[18] O
io_oeb[19] O
io_oeb[1] O
io_oeb[20] O
io_oeb[21] O
io_oeb[22] O
io_oeb[23] O
io_oeb[24] O
io_oeb[25] O
io_oeb[26] O
io_oeb[27] O
io_oeb[28] O
io_oeb[29] O
io_oeb[2] O
io_oeb[30] O
io_oeb[31] O
io_oeb[32] O
io_oeb[33] O
io_oeb[34] O
io_oeb[35] O
io_oeb[36] O
io_oeb[37] O
io_oeb[3] O
io_oeb[4] O
io_oeb[5] O
io_oeb[6] O
io_oeb[7] O
io_oeb[8] O
io_oeb[9] O
io_out[0] O
io_out[10] O
io_out[11] O
io_out[12] O
io_out[13] O
io_out[14] O
io_out[15] O
io_out[16] O
io_out[17] O
io_out[18] O
io_out[19] O
io_out[1] O
io_out[20] O
io_out[21] O
io_out[22] O
io_out[23] O
io_out[24] O
io_out[25] O
io_out[26] O
io_out[27] O
io_out[28] O
io_out[29] O
io_out[2] O
io_out[30] O
io_out[31] O
io_out[32] O
io_out[33] O
io_out[34] O
io_out[35] O
io_out[36] O
io_out[37] O
io_out[3] O
io_out[4] O
io_out[5] O
io_out[6] O
io_out[7] O
io_out[8] O
io_out[9] O
la_data_in[0] I
la_data_in[10] I
la_data_in[11] I
la_data_in[12] I
la_data_in[13] I
la_data_in[14] I
la_data_in[15] I
la_data_in[16] I
la_data_in[17] I
la_data_in[18] I
la_data_in[19] I
la_data_in[1] I
la_data_in[20] I
la_data_in[21] I
la_data_in[22] I
la_data_in[23] I
la_data_in[24] I
la_data_in[25] I
la_data_in[26] I
la_data_in[27] I
la_data_in[28] I
la_data_in[29] I
la_data_in[2] I
la_data_in[30] I
la_data_in[31] I
la_data_in[32] I
la_data_in[33] I
la_data_in[34] I
la_data_in[35] I
la_data_in[36] I
la_data_in[37] I
la_data_in[38] I
la_data_in[39] I
la_data_in[3] I
la_data_in[40] I
la_data_in[41] I
la_data_in[42] I
la_data_in[43] I
la_data_in[44] I
la_data_in[45] I
la_data_in[46] I
la_data_in[47] I
la_data_in[48] I
la_data_in[49] I
la_data_in[4] I
la_data_in[50] I
la_data_in[51] I
la_data_in[52] I
la_data_in[53] I
la_data_in[54] I
la_data_in[55] I
la_data_in[56] I
la_data_in[57] I
la_data_in[58] I
la_data_in[59] I
la_data_in[5] I
la_data_in[60] I
la_data_in[61] I
la_data_in[62] I
la_data_in[63] I
la_data_in[6] I
la_data_in[7] I
la_data_in[8] I
la_data_in[9] I
la_data_out[0] O
la_data_out[10] O
la_data_out[11] O
la_data_out[12] O
la_data_out[13] O
la_data_out[14] O
la_data_out[15] O
la_data_out[16] O
la_data_out[17] O
la_data_out[18] O
la_data_out[19] O
la_data_out[1] O
la_data_out[20] O
la_data_out[21] O
la_data_out[22] O
la_data_out[23] O
la_data_out[24] O
la_data_out[25] O
la_data_out[26] O
la_data_out[27] O
la_data_out[28] O
la_data_out[29] O
la_data_out[2] O
la_data_out[30] O
la_data_out[31] O
la_data_out[32] O
la_data_out[33] O
la_data_out[34] O
la_data_out[35] O
la_data_out[36] O
la_data_out[37] O
la_data_out[38] O
la_data_out[39] O
la_data_out[3] O
la_data_out[40] O
la_data_out[41] O
la_data_out[42] O
la_data_out[43] O
la_data_out[44] O
la_data_out[45] O
la_data_out[46] O
la_data_out[47] O
la_data_out[48] O
la_data_out[49] O
la_data_out[4] O
la_data_out[50] O
la_data_out[51] O
la_data_out[52] O
la_data_out[53] O
la_data_out[54] O
la_data_out[55] O
la_data_out[56] O
la_data_out[57] O
la_data_out[58] O
la_data_out[59] O
la_data_out[5] O
la_data_out[60] O
la_data_out[61] O
la_data_out[62] O
la_data_out[63] O
la_data_out[6] O
la_data_out[7] O
la_data_out[8] O
la_data_out[9] O
la_oenb[0] I
la_oenb[10] I
la_oenb[11] I
la_oenb[12] I
la_oenb[13] I
la_oenb[14] I
la_oenb[15] I
la_oenb[16] I
la_oenb[17] I
la_oenb[18] I
la_oenb[19] I
la_oenb[1] I
la_oenb[20] I
la_oenb[21] I
la_oenb[22] I
la_oenb[23] I
la_oenb[24] I
la_oenb[25] I
la_oenb[26] I
la_oenb[27] I
la_oenb[28] I
la_oenb[29] I
la_oenb[2] I
la_oenb[30] I
la_oenb[31] I
la_oenb[32] I
la_oenb[33] I
la_oenb[34] I
la_oenb[35] I
la_oenb[36] I
la_oenb[37] I
la_oenb[38] I
la_oenb[39] I
la_oenb[3] I
la_oenb[40] I
la_oenb[41] I
la_oenb[42] I
la_oenb[43] I
la_oenb[44] I
la_oenb[45] I
la_oenb[46] I
la_oenb[47] I
la_oenb[48] I
la_oenb[49] I
la_oenb[4] I
la_oenb[50] I
la_oenb[51] I
la_oenb[52] I
la_oenb[53] I
la_oenb[54] I
la_oenb[55] I
la_oenb[56] I
la_oenb[57] I
la_oenb[58] I
la_oenb[59] I
la_oenb[5] I
la_oenb[60] I
la_oenb[61] I
la_oenb[62] I
la_oenb[63] I
la_oenb[6] I
la_oenb[7] I
la_oenb[8] I
la_oenb[9] I
user_clock2 I
user_irq[0] O
user_irq[1] O
user_irq[2] O
wb_clk_i I
wb_rst_i I
wbs_ack_o O
wbs_adr_i[0] I
wbs_adr_i[10] I
wbs_adr_i[11] I
wbs_adr_i[12] I
wbs_adr_i[13] I
wbs_adr_i[14] I
wbs_adr_i[15] I
wbs_adr_i[16] I
wbs_adr_i[17] I
wbs_adr_i[18] I
wbs_adr_i[19] I
wbs_adr_i[1] I
wbs_adr_i[20] I
wbs_adr_i[21] I
wbs_adr_i[22] I
wbs_adr_i[23] I
wbs_adr_i[24] I
wbs_adr_i[25] I
wbs_adr_i[26] I
wbs_adr_i[27] I
wbs_adr_i[28] I
wbs_adr_i[29] I
wbs_adr_i[2] I
wbs_adr_i[30] I
wbs_adr_i[31] I
wbs_adr_i[3] I
wbs_adr_i[4] I
wbs_adr_i[5] I
wbs_adr_i[6] I
wbs_adr_i[7] I
wbs_adr_i[8] I
wbs_adr_i[9] I
wbs_cyc_i I
wbs_dat_i[0] I
wbs_dat_i[10] I
wbs_dat_i[11] I
wbs_dat_i[12] I
wbs_dat_i[13] I
wbs_dat_i[14] I
wbs_dat_i[15] I
wbs_dat_i[16] I
wbs_dat_i[17] I
wbs_dat_i[18] I
wbs_dat_i[19] I
wbs_dat_i[1] I
wbs_dat_i[20] I
wbs_dat_i[21] I
wbs_dat_i[22] I
wbs_dat_i[23] I
wbs_dat_i[24] I
wbs_dat_i[25] I
wbs_dat_i[26] I
wbs_dat_i[27] I
wbs_dat_i[28] I
wbs_dat_i[29] I
wbs_dat_i[2] I
wbs_dat_i[30] I
wbs_dat_i[31] I
wbs_dat_i[3] I
wbs_dat_i[4] I
wbs_dat_i[5] I
wbs_dat_i[6] I
wbs_dat_i[7] I
wbs_dat_i[8] I
wbs_dat_i[9] I
wbs_dat_o[0] O
wbs_dat_o[10] O
wbs_dat_o[11] O
wbs_dat_o[12] O
wbs_dat_o[13] O
wbs_dat_o[14] O
wbs_dat_o[15] O
wbs_dat_o[16] O
wbs_dat_o[17] O
wbs_dat_o[18] O
wbs_dat_o[19] O
wbs_dat_o[1] O
wbs_dat_o[20] O
wbs_dat_o[21] O
wbs_dat_o[22] O
wbs_dat_o[23] O
wbs_dat_o[24] O
wbs_dat_o[25] O
wbs_dat_o[26] O
wbs_dat_o[27] O
wbs_dat_o[28] O
wbs_dat_o[29] O
wbs_dat_o[2] O
wbs_dat_o[30] O
wbs_dat_o[31] O
wbs_dat_o[3] O
wbs_dat_o[4] O
wbs_dat_o[5] O
wbs_dat_o[6] O
wbs_dat_o[7] O
wbs_dat_o[8] O
wbs_dat_o[9] O
wbs_sel_i[0] I
wbs_sel_i[1] I
wbs_sel_i[2] I
wbs_sel_i[3] I
wbs_stb_i I
wbs_we_i I

*D_NET *1 0.227024
*CONN
*P io_in[0] I
*I *858:io_in[0] I *D top_design_mux
*CAP
1 io_in[0] 0.008399
2 *858:io_in[0] 0.00189055
3 *1:9 0.0316361
4 *1:7 0.0297455
5 *1:5 0.008399
6 *858:io_in[0] *858:mux_conf_clk 0.00061796
7 *858:io_in[0] *77:11 0.00022192
8 *1:5 *160:9 0.000349041
9 *1:5 *165:9 0
10 *1:5 *166:11 0
11 *1:9 *39:9 0.145765
*RES
1 io_in[0] *1:5 59.47 
2 *1:5 *1:7 4.5 
3 *1:7 *1:9 386.004 
4 *1:9 *858:io_in[0] 20.802 
*END

*D_NET *2 0.0909992
*CONN
*P io_in[10] I
*I *858:io_in[10] I *D top_design_mux
*CAP
1 io_in[10] 0.000964261
2 *858:io_in[10] 0.00727141
3 *2:11 0.00727141
4 *2:9 0.00899549
5 *2:7 0.00995975
6 *858:io_in[10] io_oeb[7] 0.00527168
7 *858:io_in[10] *76:7 0.000216858
8 *858:io_in[10] *78:7 0.000197741
9 *2:9 *3:9 0.0508506
*RES
1 io_in[10] *2:7 10.922 
2 *2:7 *2:9 124.868 
3 *2:9 *2:11 4.5 
4 *2:11 *858:io_in[10] 69.35 
*END

*D_NET *3 0.153259
*CONN
*P io_in[11] I
*I *858:io_in[11] I *D top_design_mux
*CAP
1 io_in[11] 0.000984899
2 *858:io_in[11] 0.00951546
3 *3:11 0.00951546
4 *3:9 0.00436085
5 *3:7 0.00534575
6 *858:io_in[11] *40:7 0.000273025
7 *858:io_in[11] *79:7 0.000346873
8 *3:9 *4:9 0.072066
9 *2:9 *3:9 0.0508506
*RES
1 io_in[11] *3:7 11.074 
2 *3:7 *3:9 175.94 
3 *3:9 *3:11 4.5 
4 *3:11 *858:io_in[11] 69.198 
*END

*D_NET *4 0.19614
*CONN
*P io_in[12] I
*I *858:io_in[12] I *D top_design_mux
*CAP
1 io_in[12] 0.00100554
2 *858:io_in[12] 0.00952952
3 *4:11 0.00952952
4 *4:9 0.00449272
5 *4:7 0.00549825
6 *858:io_in[12] *41:7 0.000267078
7 *858:io_in[12] *80:7 0.000336742
8 *4:9 *5:9 0.0934149
9 *3:9 *4:9 0.072066
*RES
1 io_in[12] *4:7 11.226 
2 *4:7 *4:9 227.012 
3 *4:9 *4:11 4.5 
4 *4:11 *858:io_in[12] 69.046 
*END

*D_NET *5 0.239002
*CONN
*P io_in[13] I
*I *858:io_in[13] I *D top_design_mux
*CAP
1 io_in[13] 0.00102617
2 *858:io_in[13] 0.00934077
3 *5:11 0.00934077
4 *5:9 0.00456316
5 *5:7 0.00558933
6 *858:io_in[13] *42:7 0.000261131
7 *858:io_in[13] *81:7 0.000766043
8 *5:9 *6:9 0.1147
9 *4:9 *5:9 0.0934149
*RES
1 io_in[13] *5:7 11.378 
2 *5:7 *5:9 278.084 
3 *5:9 *5:11 4.5 
4 *5:11 *858:io_in[13] 68.894 
*END

*D_NET *6 0.190585
*CONN
*P io_in[14] I
*I *858:io_in[14] I *D top_design_mux
*CAP
1 io_in[14] 0.0012482
2 *858:io_in[14] 0.00950271
3 *6:11 0.00950271
4 *6:9 0.0268459
5 *6:7 0.0280941
6 *858:io_in[14] *43:7 0.000499467
7 *858:io_in[14] *82:7 0.000191794
8 *5:9 *6:9 0.1147
*RES
1 io_in[14] *6:7 11.53 
2 *6:7 *6:9 329.156 
3 *6:9 *6:11 4.5 
4 *6:11 *858:io_in[14] 68.742 
*END

*D_NET *7 0.126271
*CONN
*P io_in[15] I
*I *858:io_in[15] I *D top_design_mux
*CAP
1 io_in[15] 0.00493208
2 *858:io_in[15] 0.00386441
3 *7:13 0.0572115
4 *7:11 0.0582792
5 *858:io_in[15] *44:7 0.00114095
6 *858:io_in[15] *83:7 0.000842704
*RES
1 io_in[15] *7:11 44.682 
2 *7:11 *7:13 364.876 
3 *7:13 *858:io_in[15] 36.762 
*END

*D_NET *8 0.202914
*CONN
*P io_in[16] I
*I *858:io_in[16] I *D top_design_mux
*CAP
1 io_in[16] 0.0528206
2 *858:io_in[16] 0.000995623
3 *8:9 0.0429353
4 *8:7 0.0419396
5 *8:5 0.0528206
6 *8:9 *46:9 0
7 *8:9 *615:9 0.0114019
*RES
1 io_in[16] *8:5 362.71 
2 *8:5 *8:7 4.5 
3 *8:7 *8:9 261.972 
4 *8:9 *858:io_in[16] 10.618 
*END

*D_NET *9 0.271558
*CONN
*P io_in[17] I
*I *858:io_in[17] I *D top_design_mux
*CAP
1 io_in[17] 0.000999175
2 *858:io_in[17] 0.00072244
3 *9:17 0.000875173
4 *9:13 0.0297682
5 *9:11 0.0296155
6 *9:9 0.00248097
7 *9:7 0.00348015
8 *9:9 *10:9 0.000282086
9 *9:9 *46:17 0.0562673
10 *9:9 *85:17 0.043198
11 *9:13 *10:13 0.0700591
12 *9:17 *46:9 0.016525
13 *9:17 *85:9 0.0172851
*RES
1 io_in[17] *9:7 11.378 
2 *9:7 *9:9 136.268 
3 *9:9 *9:11 4.5 
4 *9:11 *9:13 357.428 
5 *9:13 *9:17 45.92 
6 *9:17 *858:io_in[17] 9.098 
*END

*D_NET *10 0.22099
*CONN
*P io_in[18] I
*I *858:io_in[18] I *D top_design_mux
*CAP
1 io_in[18] 0.000933568
2 *858:io_in[18] 0.000640225
3 *10:17 0.000937834
4 *10:15 0.000297609
5 *10:13 0.00727595
6 *10:11 0.00727595
7 *10:9 0.00332849
8 *10:7 0.00426206
9 *10:9 *47:17 0.018176
10 *10:9 *85:17 5.43087e-05
11 *10:13 *46:13 0.070017
12 *10:17 *47:9 0.0189184
13 *10:17 *85:9 0.0181584
14 *10:17 *86:9 0.000373528
15 *9:9 *10:9 0.000282086
16 *9:13 *10:13 0.0700591
*RES
1 io_in[18] *10:7 10.922 
2 *10:7 *10:9 46.132 
3 *10:9 *10:11 4.5 
4 *10:11 *10:13 358.188 
5 *10:13 *10:15 4.5 
6 *10:15 *10:17 47.196 
7 *10:17 *858:io_in[18] 8.794 
*END

*D_NET *11 0.218552
*CONN
*P io_in[19] I
*I *858:io_in[19] I *D top_design_mux
*CAP
1 io_in[19] 0.00102104
2 *858:io_in[19] 0.0646727
3 *11:11 0.0646727
4 *11:9 0.0142881
5 *11:7 0.0153092
6 *11:9 *87:9 0.0585878
*RES
1 io_in[19] *11:7 11.53 
2 *11:7 *11:9 171.228 
3 *11:9 *11:11 4.5 
4 *11:11 *858:io_in[19] 361.798 
*END

*D_NET *12 0.235353
*CONN
*P io_in[1] I
*I *858:io_in[1] I *D top_design_mux
*CAP
1 io_in[1] 0.00858688
2 *858:io_in[1] 0.00176205
3 *12:9 0.0138088
4 *12:7 0.0120467
5 *12:5 0.00858688
6 *858:io_in[1] *39:7 0.000628088
7 *858:io_in[1] *88:7 0.000635798
8 *12:9 *32:9 0.094565
9 *12:9 *33:9 0.0721166
10 *12:9 *39:9 0.0226163
*RES
1 io_in[1] *12:5 59.014 
2 *12:5 *12:7 4.5 
3 *12:7 *12:9 334.932 
4 *12:9 *858:io_in[1] 21.258 
*END

*D_NET *13 0.195067
*CONN
*P io_in[20] I
*I *858:io_in[20] I *D top_design_mux
*CAP
1 io_in[20] 0.000955437
2 *858:io_in[20] 0.0647542
3 *13:11 0.0647542
4 *13:9 0.00243642
5 *13:7 0.00339185
6 *13:9 *49:9 0.0352564
7 *13:9 *89:9 0.0235185
*RES
1 io_in[20] *13:7 11.074 
2 *13:7 *13:9 86.868 
3 *13:9 *13:11 4.5 
4 *13:11 *858:io_in[20] 362.254 
*END

*D_NET *14 0.108182
*CONN
*P io_in[21] I
*I *858:io_in[21] I *D top_design_mux
*CAP
1 io_in[21] 0.00144807
2 *858:io_in[21] 0.0526428
3 *14:11 0.0540909
4 *14:11 *89:5 0
*RES
1 io_in[21] *14:11 18.994 
2 *14:11 *858:io_in[21] 361.342 
*END

*D_NET *15 0.181121
*CONN
*P io_in[22] I
*I *858:io_in[22] I *D top_design_mux
*CAP
1 io_in[22] 0.000977306
2 *858:io_in[22] 0.000825762
3 *15:13 0.0305586
4 *15:11 0.0297329