*SPEF "ieee 1481-1999"
*DESIGN "user_project_wrapper"
*DATE "11:11:11 Fri 11 11, 1111"
*VENDOR "OpenRCX"
*PROGRAM "Parallel Extraction"
*VERSION "1.0"
*DESIGN_FLOW "NAME_SCOPE LOCAL" "PIN_CAP NONE"
*DIVIDER /
*DELIMITER :
*BUS_DELIMITER []
*T_UNIT 1 NS
*C_UNIT 1 PF
*R_UNIT 1 OHM
*L_UNIT 1 HENRY

*NAME_MAP
*1 io_in[0]
*2 io_in[10]
*3 io_in[11]
*4 io_in[12]
*5 io_in[13]
*6 io_in[14]
*7 io_in[15]
*8 io_in[16]
*9 io_in[17]
*10 io_in[18]
*11 io_in[19]
*12 io_in[1]
*13 io_in[20]
*14 io_in[21]
*15 io_in[22]
*16 io_in[23]
*17 io_in[24]
*18 io_in[25]
*19 io_in[26]
*20 io_in[27]
*21 io_in[28]
*22 io_in[29]
*23 io_in[2]
*24 io_in[30]
*25 io_in[31]
*26 io_in[32]
*27 io_in[33]
*28 io_in[34]
*29 io_in[35]
*30 io_in[36]
*31 io_in[37]
*32 io_in[3]
*33 io_in[4]
*34 io_in[5]
*35 io_in[6]
*36 io_in[7]
*37 io_in[8]
*38 io_in[9]
*39 io_oeb[0]
*40 io_oeb[10]
*41 io_oeb[11]
*42 io_oeb[12]
*43 io_oeb[13]
*44 io_oeb[14]
*45 io_oeb[15]
*46 io_oeb[16]
*47 io_oeb[17]
*48 io_oeb[18]
*49 io_oeb[19]
*50 io_oeb[1]
*51 io_oeb[20]
*52 io_oeb[21]
*53 io_oeb[22]
*54 io_oeb[23]
*55 io_oeb[24]
*56 io_oeb[25]
*57 io_oeb[26]
*58 io_oeb[27]
*59 io_oeb[28]
*60 io_oeb[29]
*61 io_oeb[2]
*62 io_oeb[30]
*63 io_oeb[31]
*64 io_oeb[32]
*65 io_oeb[33]
*66 io_oeb[34]
*67 io_oeb[35]
*68 io_oeb[36]
*69 io_oeb[37]
*70 io_oeb[3]
*71 io_oeb[4]
*72 io_oeb[5]
*73 io_oeb[6]
*74 io_oeb[7]
*75 io_oeb[8]
*76 io_oeb[9]
*77 io_out[0]
*78 io_out[10]
*79 io_out[11]
*80 io_out[12]
*81 io_out[13]
*82 io_out[14]
*83 io_out[15]
*84 io_out[16]
*85 io_out[17]
*86 io_out[18]
*87 io_out[19]
*88 io_out[1]
*89 io_out[20]
*90 io_out[21]
*91 io_out[22]
*92 io_out[23]
*93 io_out[24]
*94 io_out[25]
*95 io_out[26]
*96 io_out[27]
*97 io_out[28]
*98 io_out[29]
*99 io_out[2]
*100 io_out[30]
*101 io_out[31]
*102 io_out[32]
*103 io_out[33]
*104 io_out[34]
*105 io_out[35]
*106 io_out[36]
*107 io_out[37]
*108 io_out[3]
*109 io_out[4]
*110 io_out[5]
*111 io_out[6]
*112 io_out[7]
*113 io_out[8]
*114 io_out[9]
*115 la_data_in[0]
*116 la_data_in[10]
*117 la_data_in[11]
*118 la_data_in[12]
*119 la_data_in[13]
*120 la_data_in[14]
*121 la_data_in[15]
*122 la_data_in[16]
*123 la_data_in[17]
*124 la_data_in[18]
*125 la_data_in[19]
*126 la_data_in[1]
*127 la_data_in[20]
*128 la_data_in[21]
*129 la_data_in[22]
*130 la_data_in[23]
*131 la_data_in[24]
*132 la_data_in[25]
*133 la_data_in[26]
*134 la_data_in[27]
*135 la_data_in[28]
*136 la_data_in[29]
*137 la_data_in[2]
*138 la_data_in[30]
*139 la_data_in[31]
*140 la_data_in[32]
*141 la_data_in[33]
*142 la_data_in[34]
*143 la_data_in[35]
*144 la_data_in[36]
*145 la_data_in[37]
*146 la_data_in[38]
*147 la_data_in[39]
*148 la_data_in[3]
*149 la_data_in[40]
*150 la_data_in[41]
*151 la_data_in[42]
*152 la_data_in[43]
*153 la_data_in[44]
*154 la_data_in[45]
*155 la_data_in[46]
*156 la_data_in[47]
*157 la_data_in[48]
*158 la_data_in[49]
*159 la_data_in[4]
*160 la_data_in[50]
*161 la_data_in[51]
*162 la_data_in[52]
*163 la_data_in[53]
*164 la_data_in[54]
*165 la_data_in[55]
*166 la_data_in[56]
*167 la_data_in[57]
*168 la_data_in[58]
*169 la_data_in[59]
*170 la_data_in[5]
*171 la_data_in[60]
*172 la_data_in[61]
*173 la_data_in[62]
*174 la_data_in[63]
*175 la_data_in[6]
*176 la_data_in[7]
*177 la_data_in[8]
*178 la_data_in[9]
*179 la_data_out[0]
*180 la_data_out[10]
*181 la_data_out[11]
*182 la_data_out[12]
*183 la_data_out[13]
*184 la_data_out[14]
*185 la_data_out[15]
*186 la_data_out[16]
*187 la_data_out[17]
*188 la_data_out[18]
*189 la_data_out[19]
*190 la_data_out[1]
*191 la_data_out[20]
*192 la_data_out[21]
*193 la_data_out[22]
*194 la_data_out[23]
*195 la_data_out[24]
*196 la_data_out[25]
*197 la_data_out[26]
*198 la_data_out[27]
*199 la_data_out[28]
*200 la_data_out[29]
*201 la_data_out[2]
*202 la_data_out[30]
*203 la_data_out[31]
*204 la_data_out[32]
*205 la_data_out[33]
*206 la_data_out[34]
*207 la_data_out[35]
*208 la_data_out[36]
*209 la_data_out[37]
*210 la_data_out[38]
*211 la_data_out[39]
*212 la_data_out[3]
*213 la_data_out[40]
*214 la_data_out[41]
*215 la_data_out[42]
*216 la_data_out[43]
*217 la_data_out[44]
*218 la_data_out[45]
*219 la_data_out[46]
*220 la_data_out[47]
*221 la_data_out[48]
*222 la_data_out[49]
*223 la_data_out[4]
*224 la_data_out[50]
*225 la_data_out[51]
*226 la_data_out[52]
*227 la_data_out[53]
*228 la_data_out[54]
*229 la_data_out[55]
*230 la_data_out[56]
*231 la_data_out[57]
*232 la_data_out[58]
*233 la_data_out[59]
*234 la_data_out[5]
*235 la_data_out[60]
*236 la_data_out[61]
*237 la_data_out[62]
*238 la_data_out[63]
*239 la_data_out[6]
*240 la_data_out[7]
*241 la_data_out[8]
*242 la_data_out[9]
*243 la_oenb[0]
*244 la_oenb[10]
*245 la_oenb[11]
*246 la_oenb[12]
*247 la_oenb[13]
*248 la_oenb[14]
*249 la_oenb[15]
*250 la_oenb[16]
*251 la_oenb[17]
*252 la_oenb[18]
*253 la_oenb[19]
*254 la_oenb[1]
*255 la_oenb[20]
*256 la_oenb[21]
*257 la_oenb[22]
*258 la_oenb[23]
*259 la_oenb[24]
*260 la_oenb[25]
*261 la_oenb[26]
*262 la_oenb[27]
*263 la_oenb[28]
*264 la_oenb[29]
*265 la_oenb[2]
*266 la_oenb[30]
*267 la_oenb[31]
*268 la_oenb[32]
*269 la_oenb[33]
*270 la_oenb[34]
*271 la_oenb[35]
*272 la_oenb[36]
*273 la_oenb[37]
*274 la_oenb[38]
*275 la_oenb[39]
*276 la_oenb[3]
*277 la_oenb[40]
*278 la_oenb[41]
*279 la_oenb[42]
*280 la_oenb[43]
*281 la_oenb[44]
*282 la_oenb[45]
*283 la_oenb[46]
*284 la_oenb[47]
*285 la_oenb[48]
*286 la_oenb[49]
*287 la_oenb[4]
*288 la_oenb[50]
*289 la_oenb[51]
*290 la_oenb[52]
*291 la_oenb[53]
*292 la_oenb[54]
*293 la_oenb[55]
*294 la_oenb[56]
*295 la_oenb[57]
*296 la_oenb[58]
*297 la_oenb[59]
*298 la_oenb[5]
*299 la_oenb[60]
*300 la_oenb[61]
*301 la_oenb[62]
*302 la_oenb[63]
*303 la_oenb[6]
*304 la_oenb[7]
*305 la_oenb[8]
*306 la_oenb[9]
*307 user_clock2
*308 user_irq[0]
*309 user_irq[1]
*310 user_irq[2]
*313 wb_clk_i
*314 wb_rst_i
*315 wbs_ack_o
*316 wbs_adr_i[0]
*317 wbs_adr_i[10]
*318 wbs_adr_i[11]
*319 wbs_adr_i[12]
*320 wbs_adr_i[13]
*321 wbs_adr_i[14]
*322 wbs_adr_i[15]
*323 wbs_adr_i[16]
*324 wbs_adr_i[17]
*325 wbs_adr_i[18]
*326 wbs_adr_i[19]
*327 wbs_adr_i[1]
*328 wbs_adr_i[20]
*329 wbs_adr_i[21]
*330 wbs_adr_i[22]
*331 wbs_adr_i[23]
*332 wbs_adr_i[24]
*333 wbs_adr_i[25]
*334 wbs_adr_i[26]
*335 wbs_adr_i[27]
*336 wbs_adr_i[28]
*337 wbs_adr_i[29]
*338 wbs_adr_i[2]
*339 wbs_adr_i[30]
*340 wbs_adr_i[31]
*341 wbs_adr_i[3]
*342 wbs_adr_i[4]
*343 wbs_adr_i[5]
*344 wbs_adr_i[6]
*345 wbs_adr_i[7]
*346 wbs_adr_i[8]
*347 wbs_adr_i[9]
*348 wbs_cyc_i
*349 wbs_dat_i[0]
*350 wbs_dat_i[10]
*351 wbs_dat_i[11]
*352 wbs_dat_i[12]
*353 wbs_dat_i[13]
*354 wbs_dat_i[14]
*355 wbs_dat_i[15]
*356 wbs_dat_i[16]
*357 wbs_dat_i[17]
*358 wbs_dat_i[18]
*359 wbs_dat_i[19]
*360 wbs_dat_i[1]
*361 wbs_dat_i[20]
*362 wbs_dat_i[21]
*363 wbs_dat_i[22]
*364 wbs_dat_i[23]
*365 wbs_dat_i[24]
*366 wbs_dat_i[25]
*367 wbs_dat_i[26]
*368 wbs_dat_i[27]
*369 wbs_dat_i[28]
*370 wbs_dat_i[29]
*371 wbs_dat_i[2]
*372 wbs_dat_i[30]
*373 wbs_dat_i[31]
*374 wbs_dat_i[3]
*375 wbs_dat_i[4]
*376 wbs_dat_i[5]
*377 wbs_dat_i[6]
*378 wbs_dat_i[7]
*379 wbs_dat_i[8]
*380 wbs_dat_i[9]
*381 wbs_dat_o[0]
*382 wbs_dat_o[10]
*383 wbs_dat_o[11]
*384 wbs_dat_o[12]
*385 wbs_dat_o[13]
*386 wbs_dat_o[14]
*387 wbs_dat_o[15]
*388 wbs_dat_o[16]
*389 wbs_dat_o[17]
*390 wbs_dat_o[18]
*391 wbs_dat_o[19]
*392 wbs_dat_o[1]
*393 wbs_dat_o[20]
*394 wbs_dat_o[21]
*395 wbs_dat_o[22]
*396 wbs_dat_o[23]
*397 wbs_dat_o[24]
*398 wbs_dat_o[25]
*399 wbs_dat_o[26]
*400 wbs_dat_o[27]
*401 wbs_dat_o[28]
*402 wbs_dat_o[29]
*403 wbs_dat_o[2]
*404 wbs_dat_o[30]
*405 wbs_dat_o[31]
*406 wbs_dat_o[3]
*407 wbs_dat_o[4]
*408 wbs_dat_o[5]
*409 wbs_dat_o[6]
*410 wbs_dat_o[7]
*411 wbs_dat_o[8]
*412 wbs_dat_o[9]
*413 wbs_sel_i[0]
*414 wbs_sel_i[1]
*415 wbs_sel_i[2]
*416 wbs_sel_i[3]
*417 wbs_stb_i
*418 wbs_we_i
*419 diego_clk
*420 diego_io_in_all38\[0\]
*421 diego_io_in_all38\[10\]
*422 diego_io_in_all38\[11\]
*423 diego_io_in_all38\[12\]
*424 diego_io_in_all38\[13\]
*425 diego_io_in_all38\[14\]
*426 diego_io_in_all38\[15\]
*427 diego_io_in_all38\[16\]
*428 diego_io_in_all38\[17\]
*429 diego_io_in_all38\[18\]
*430 diego_io_in_all38\[19\]
*431 diego_io_in_all38\[1\]
*432 diego_io_in_all38\[20\]
*433 diego_io_in_all38\[21\]
*434 diego_io_in_all38\[22\]
*435 diego_io_in_all38\[23\]
*436 diego_io_in_all38\[24\]
*437 diego_io_in_all38\[25\]
*438 diego_io_in_all38\[26\]
*439 diego_io_in_all38\[27\]
*440 diego_io_in_all38\[28\]
*441 diego_io_in_all38\[29\]
*442 diego_io_in_all38\[2\]
*443 diego_io_in_all38\[30\]
*444 diego_io_in_all38\[31\]
*445 diego_io_in_all38\[32\]
*446 diego_io_in_all38\[33\]
*447 diego_io_in_all38\[34\]
*448 diego_io_in_all38\[35\]
*449 diego_io_in_all38\[36\]
*450 diego_io_in_all38\[37\]
*451 diego_io_in_all38\[3\]
*452 diego_io_in_all38\[4\]
*453 diego_io_in_all38\[5\]
*454 diego_io_in_all38\[6\]
*455 diego_io_in_all38\[7\]
*456 diego_io_in_all38\[8\]
*457 diego_io_in_all38\[9\]
*458 diego_io_oeb\[0\]
*459 diego_io_oeb\[10\]
*460 diego_io_oeb\[11\]
*461 diego_io_oeb\[12\]
*462 diego_io_oeb\[13\]
*463 diego_io_oeb\[14\]
*464 diego_io_oeb\[15\]
*465 diego_io_oeb\[16\]
*466 diego_io_oeb\[17\]
*467 diego_io_oeb\[18\]
*468 diego_io_oeb\[19\]
*469 diego_io_oeb\[1\]
*470 diego_io_oeb\[20\]
*471 diego_io_oeb\[21\]
*472 diego_io_oeb\[22\]
*473 diego_io_oeb\[23\]
*474 diego_io_oeb\[24\]
*475 diego_io_oeb\[25\]
*476 diego_io_oeb\[26\]
*477 diego_io_oeb\[27\]
*478 diego_io_oeb\[28\]
*479 diego_io_oeb\[29\]
*480 diego_io_oeb\[2\]
*481 diego_io_oeb\[30\]
*482 diego_io_oeb\[31\]
*483 diego_io_oeb\[3\]
*484 diego_io_oeb\[4\]
*485 diego_io_oeb\[5\]
*486 diego_io_oeb\[6\]
*487 diego_io_oeb\[7\]
*488 diego_io_oeb\[8\]
*489 diego_io_oeb\[9\]
*490 diego_io_out\[0\]
*491 diego_io_out\[10\]
*492 diego_io_out\[11\]
*493 diego_io_out\[12\]
*494 diego_io_out\[13\]
*495 diego_io_out\[14\]
*496 diego_io_out\[15\]
*497 diego_io_out\[16\]
*498 diego_io_out\[17\]
*499 diego_io_out\[18\]
*500 diego_io_out\[19\]
*501 diego_io_out\[1\]
*502 diego_io_out\[20\]
*503 diego_io_out\[21\]
*504 diego_io_out\[22\]
*505 diego_io_out\[23\]
*506 diego_io_out\[24\]
*507 diego_io_out\[25\]
*508 diego_io_out\[26\]
*509 diego_io_out\[27\]
*510 diego_io_out\[28\]
*511 diego_io_out\[29\]
*512 diego_io_out\[2\]
*513 diego_io_out\[30\]
*514 diego_io_out\[31\]
*515 diego_io_out\[3\]
*516 diego_io_out\[4\]
*517 diego_io_out\[5\]
*518 diego_io_out\[6\]
*519 diego_io_out\[7\]
*520 diego_io_out\[8\]
*521 diego_io_out\[9\]
*522 io_out_slice\[0\]
*523 io_out_slice\[1\]
*524 io_out_slice\[2\]
*525 io_out_slice\[3\]
*526 io_out_slice\[4\]
*527 io_out_slice\[5\]
*528 io_out_slice\[6\]
*529 io_out_slice\[7\]
*530 pawel_clk
*531 pawel_io_in_all38\[0\]
*532 pawel_io_in_all38\[10\]
*533 pawel_io_in_all38\[11\]
*534 pawel_io_in_all38\[12\]
*535 pawel_io_in_all38\[13\]
*536 pawel_io_in_all38\[14\]
*537 pawel_io_in_all38\[15\]
*538 pawel_io_in_all38\[16\]
*539 pawel_io_in_all38\[17\]
*540 pawel_io_in_all38\[18\]
*541 pawel_io_in_all38\[19\]
*542 pawel_io_in_all38\[1\]
*543 pawel_io_in_all38\[20\]
*544 pawel_io_in_all38\[21\]
*545 pawel_io_in_all38\[22\]
*546 pawel_io_in_all38\[23\]
*547 pawel_io_in_all38\[24\]
*548 pawel_io_in_all38\[25\]
*549 pawel_io_in_all38\[26\]
*550 pawel_io_in_all38\[27\]
*551 pawel_io_in_all38\[28\]
*552 pawel_io_in_all38\[29\]
*553 pawel_io_in_all38\[2\]
*554 pawel_io_in_all38\[30\]
*555 pawel_io_in_all38\[31\]
*556 pawel_io_in_all38\[32\]
*557 pawel_io_in_all38\[33\]
*558 pawel_io_in_all38\[34\]
*559 pawel_io_in_all38\[35\]
*560 pawel_io_in_all38\[36\]
*561 pawel_io_in_all38\[37\]
*562 pawel_io_in_all38\[3\]
*563 pawel_io_in_all38\[4\]
*564 pawel_io_in_all38\[5\]
*565 pawel_io_in_all38\[6\]
*566 pawel_io_in_all38\[7\]
*567 pawel_io_in_all38\[8\]
*568 pawel_io_in_all38\[9\]
*569 pawel_io_oeb\[0\]
*570 pawel_io_oeb\[10\]
*571 pawel_io_oeb\[11\]
*572 pawel_io_oeb\[12\]
*573 pawel_io_oeb\[1\]
*574 pawel_io_oeb\[2\]
*575 pawel_io_oeb\[3\]
*576 pawel_io_oeb\[4\]
*577 pawel_io_oeb\[5\]
*578 pawel_io_oeb\[6\]
*579 pawel_io_oeb\[7\]
*580 pawel_io_oeb\[8\]
*581 pawel_io_oeb\[9\]
*582 pawel_io_out\[0\]
*583 pawel_io_out\[10\]
*584 pawel_io_out\[11\]
*585 pawel_io_out\[12\]
*586 pawel_io_out\[1\]
*587 pawel_io_out\[2\]
*588 pawel_io_out\[3\]
*589 pawel_io_out\[4\]
*590 pawel_io_out\[5\]
*591 pawel_io_out\[6\]
*592 pawel_io_out\[7\]
*593 pawel_io_out\[8\]
*594 pawel_io_out\[9\]
*595 pawel_mux_rst
*596 solos_clk
*597 solos_gpio_ready
*598 solos_io_in_all38\[0\]
*599 solos_io_in_all38\[10\]
*600 solos_io_in_all38\[11\]
*601 solos_io_in_all38\[12\]
*602 solos_io_in_all38\[13\]
*603 solos_io_in_all38\[14\]
*604 solos_io_in_all38\[15\]
*605 solos_io_in_all38\[16\]
*606 solos_io_in_all38\[17\]
*607 solos_io_in_all38\[18\]
*608 solos_io_in_all38\[19\]
*609 solos_io_in_all38\[1\]
*610 solos_io_in_all38\[20\]
*611 solos_io_in_all38\[21\]
*612 solos_io_in_all38\[22\]
*613 solos_io_in_all38\[23\]
*614 solos_io_in_all38\[24\]
*615 solos_io_in_all38\[25\]
*616 solos_io_in_all38\[26\]
*617 solos_io_in_all38\[27\]
*618 solos_io_in_all38\[28\]
*619 solos_io_in_all38\[29\]
*620 solos_io_in_all38\[2\]
*621 solos_io_in_all38\[30\]
*622 solos_io_in_all38\[31\]
*623 solos_io_in_all38\[32\]
*624 solos_io_in_all38\[33\]
*625 solos_io_in_all38\[34\]
*626 solos_io_in_all38\[35\]
*627 solos_io_in_all38\[36\]
*628 solos_io_in_all38\[37\]
*629 solos_io_in_all38\[3\]
*630 solos_io_in_all38\[4\]
*631 solos_io_in_all38\[5\]
*632 solos_io_in_all38\[6\]
*633 solos_io_in_all38\[7\]
*634 solos_io_in_all38\[8\]
*635 solos_io_in_all38\[9\]
*636 solos_io_out\[0\]
*637 solos_io_out\[10\]
*638 solos_io_out\[11\]
*639 solos_io_out\[12\]
*640 solos_io_out\[1\]
*641 solos_io_out\[2\]
*642 solos_io_out\[3\]
*643 solos_io_out\[4\]
*644 solos_io_out\[5\]
*645 solos_io_out\[6\]
*646 solos_io_out\[7\]
*647 solos_io_out\[8\]
*648 solos_io_out\[9\]
*649 solos_rst
*650 trzf2_clk
*651 trzf2_ena
*652 trzf2_io_in\[0\]
*653 trzf2_io_in\[10\]
*654 trzf2_io_in\[11\]
*655 trzf2_io_in\[12\]
*656 trzf2_io_in\[13\]
*657 trzf2_io_in\[14\]
*658 trzf2_io_in\[15\]
*659 trzf2_io_in\[16\]
*660 trzf2_io_in\[17\]
*661 trzf2_io_in\[18\]
*662 trzf2_io_in\[19\]
*663 trzf2_io_in\[1\]
*664 trzf2_io_in\[20\]
*665 trzf2_io_in\[21\]
*666 trzf2_io_in\[22\]
*667 trzf2_io_in\[23\]
*668 trzf2_io_in\[24\]
*669 trzf2_io_in\[25\]
*670 trzf2_io_in\[26\]
*671 trzf2_io_in\[27\]
*672 trzf2_io_in\[28\]
*673 trzf2_io_in\[29\]
*674 trzf2_io_in\[2\]
*675 trzf2_io_in\[30\]
*676 trzf2_io_in\[31\]
*677 trzf2_io_in\[32\]
*678 trzf2_io_in\[33\]
*679 trzf2_io_in\[34\]
*680 trzf2_io_in\[35\]
*681 trzf2_io_in\[36\]
*682 trzf2_io_in\[37\]
*683 trzf2_io_in\[3\]
*684 trzf2_io_in\[4\]
*685 trzf2_io_in\[5\]
*686 trzf2_io_in\[6\]
*687 trzf2_io_in\[7\]
*688 trzf2_io_in\[8\]
*689 trzf2_io_in\[9\]
*690 trzf2_la_in\[0\]
*691 trzf2_la_in\[10\]
*692 trzf2_la_in\[11\]
*693 trzf2_la_in\[12\]
*694 trzf2_la_in\[1\]
*695 trzf2_la_in\[2\]
*696 trzf2_la_in\[3\]
*697 trzf2_la_in\[4\]
*698 trzf2_la_in\[5\]
*699 trzf2_la_in\[6\]
*700 trzf2_la_in\[7\]
*701 trzf2_la_in\[8\]
*702 trzf2_la_in\[9\]
*703 trzf2_o_gpout\[0\]
*704 trzf2_o_gpout\[1\]
*705 trzf2_o_gpout\[2\]
*706 trzf2_o_hsync
*707 trzf2_o_rgb\[0\]
*708 trzf2_o_rgb\[1\]
*709 trzf2_o_rgb\[2\]
*710 trzf2_o_rgb\[3\]
*711 trzf2_o_rgb\[4\]
*712 trzf2_o_rgb\[5\]
*713 trzf2_o_tex_csb
*714 trzf2_o_tex_oeb0
*715 trzf2_o_tex_out0
*716 trzf2_o_tex_sclk
*717 trzf2_o_vsync
*718 trzf2_rst
*719 trzf_clk
*720 trzf_ena
*721 trzf_io_in\[0\]
*722 trzf_io_in\[10\]
*723 trzf_io_in\[11\]
*724 trzf_io_in\[12\]
*725 trzf_io_in\[13\]
*726 trzf_io_in\[14\]
*727 trzf_io_in\[15\]
*728 trzf_io_in\[16\]
*729 trzf_io_in\[17\]
*730 trzf_io_in\[18\]
*731 trzf_io_in\[19\]
*732 trzf_io_in\[1\]
*733 trzf_io_in\[20\]
*734 trzf_io_in\[21\]
*735 trzf_io_in\[22\]
*736 trzf_io_in\[23\]
*737 trzf_io_in\[24\]
*738 trzf_io_in\[25\]
*739 trzf_io_in\[26\]
*740 trzf_io_in\[27\]
*741 trzf_io_in\[28\]
*742 trzf_io_in\[29\]
*743 trzf_io_in\[2\]
*744 trzf_io_in\[30\]
*745 trzf_io_in\[31\]
*746 trzf_io_in\[32\]
*747 trzf_io_in\[33\]
*748 trzf_io_in\[34\]
*749 trzf_io_in\[35\]
*750 trzf_io_in\[36\]
*751 trzf_io_in\[37\]
*752 trzf_io_in\[3\]
*753 trzf_io_in\[4\]
*754 trzf_io_in\[5\]
*755 trzf_io_in\[6\]
*756 trzf_io_in\[7\]
*757 trzf_io_in\[8\]
*758 trzf_io_in\[9\]
*759 trzf_la_in\[0\]
*760 trzf_la_in\[10\]
*761 trzf_la_in\[11\]
*762 trzf_la_in\[12\]
*763 trzf_la_in\[1\]
*764 trzf_la_in\[2\]
*765 trzf_la_in\[3\]
*766 trzf_la_in\[4\]
*767 trzf_la_in\[5\]
*768 trzf_la_in\[6\]
*769 trzf_la_in\[7\]
*770 trzf_la_in\[8\]
*771 trzf_la_in\[9\]
*772 trzf_o_gpout\[0\]
*773 trzf_o_gpout\[1\]
*774 trzf_o_gpout\[2\]
*775 trzf_o_hsync
*776 trzf_o_rgb\[0\]
*777 trzf_o_rgb\[1\]
*778 trzf_o_rgb\[2\]
*779 trzf_o_rgb\[3\]
*780 trzf_o_rgb\[4\]
*781 trzf_o_rgb\[5\]
*782 trzf_o_tex_csb
*783 trzf_o_tex_oeb0
*784 trzf_o_tex_out0
*785 trzf_o_tex_sclk
*786 trzf_o_vsync
*787 trzf_rst
*788 uri_clk
*789 uri_io_in\[0\]
*790 uri_io_in\[10\]
*791 uri_io_in\[11\]
*792 uri_io_in\[12\]
*793 uri_io_in\[13\]
*794 uri_io_in\[14\]
*795 uri_io_in\[15\]
*796 uri_io_in\[16\]
*797 uri_io_in\[17\]
*798 uri_io_in\[18\]
*799 uri_io_in\[19\]
*800 uri_io_in\[1\]
*801 uri_io_in\[20\]
*802 uri_io_in\[21\]
*803 uri_io_in\[22\]
*804 uri_io_in\[23\]
*805 uri_io_in\[24\]
*806 uri_io_in\[25\]
*807 uri_io_in\[26\]
*808 uri_io_in\[27\]
*809 uri_io_in\[28\]
*810 uri_io_in\[29\]
*811 uri_io_in\[2\]
*812 uri_io_in\[30\]
*813 uri_io_in\[31\]
*814 uri_io_in\[32\]
*815 uri_io_in\[33\]
*816 uri_io_in\[34\]
*817 uri_io_in\[35\]
*818 uri_io_in\[36\]
*819 uri_io_in\[37\]
*820 uri_io_in\[3\]
*821 uri_io_in\[4\]
*822 uri_io_in\[5\]
*823 uri_io_in\[6\]
*824 uri_io_in\[7\]
*825 uri_io_in\[8\]
*826 uri_io_in\[9\]
*827 uri_io_oeb\[0\]
*828 uri_io_oeb\[10\]
*829 uri_io_oeb\[11\]
*830 uri_io_oeb\[12\]
*831 uri_io_oeb\[13\]
*832 uri_io_oeb\[14\]
*833 uri_io_oeb\[15\]
*834 uri_io_oeb\[16\]
*835 uri_io_oeb\[17\]
*836 uri_io_oeb\[18\]
*837 uri_io_oeb\[19\]
*838 uri_io_oeb\[1\]
*839 uri_io_oeb\[20\]
*840 uri_io_oeb\[21\]
*841 uri_io_oeb\[22\]
*842 uri_io_oeb\[23\]
*843 uri_io_oeb\[24\]
*844 uri_io_oeb\[25\]
*845 uri_io_oeb\[26\]
*846 uri_io_oeb\[27\]
*847 uri_io_oeb\[28\]
*848 uri_io_oeb\[29\]
*849 uri_io_oeb\[2\]
*850 uri_io_oeb\[30\]
*851 uri_io_oeb\[31\]
*852 uri_io_oeb\[32\]
*853 uri_io_oeb\[33\]
*854 uri_io_oeb\[34\]
*855 uri_io_oeb\[35\]
*856 uri_io_oeb\[36\]
*857 uri_io_oeb\[37\]
*858 uri_io_oeb\[3\]
*859 uri_io_oeb\[4\]
*860 uri_io_oeb\[5\]
*861 uri_io_oeb\[6\]
*862 uri_io_oeb\[7\]
*863 uri_io_oeb\[8\]
*864 uri_io_oeb\[9\]
*865 uri_io_out\[0\]
*866 uri_io_out\[10\]
*867 uri_io_out\[11\]
*868 uri_io_out\[12\]
*869 uri_io_out\[13\]
*870 uri_io_out\[14\]
*871 uri_io_out\[15\]
*872 uri_io_out\[16\]
*873 uri_io_out\[17\]
*874 uri_io_out\[18\]
*875 uri_io_out\[19\]
*876 uri_io_out\[1\]
*877 uri_io_out\[20\]
*878 uri_io_out\[21\]
*879 uri_io_out\[22\]
*880 uri_io_out\[23\]
*881 uri_io_out\[24\]
*882 uri_io_out\[25\]
*883 uri_io_out\[26\]
*884 uri_io_out\[27\]
*885 uri_io_out\[28\]
*886 uri_io_out\[29\]
*887 uri_io_out\[2\]
*888 uri_io_out\[30\]
*889 uri_io_out\[31\]
*890 uri_io_out\[32\]
*891 uri_io_out\[33\]
*892 uri_io_out\[34\]
*893 uri_io_out\[35\]
*894 uri_io_out\[36\]
*895 uri_io_out\[37\]
*896 uri_io_out\[3\]
*897 uri_io_out\[4\]
*898 uri_io_out\[5\]
*899 uri_io_out\[6\]
*900 uri_io_out\[7\]
*901 uri_io_out\[8\]
*902 uri_io_out\[9\]
*903 uri_rst
*904 vgasp_clk
*905 vgasp_io_in\[0\]
*906 vgasp_io_in\[10\]
*907 vgasp_io_in\[11\]
*908 vgasp_io_in\[12\]
*909 vgasp_io_in\[13\]
*910 vgasp_io_in\[14\]
*911 vgasp_io_in\[15\]
*912 vgasp_io_in\[16\]
*913 vgasp_io_in\[17\]
*914 vgasp_io_in\[18\]
*915 vgasp_io_in\[19\]
*916 vgasp_io_in\[1\]
*917 vgasp_io_in\[20\]
*918 vgasp_io_in\[21\]
*919 vgasp_io_in\[22\]
*920 vgasp_io_in\[23\]
*921 vgasp_io_in\[24\]
*922 vgasp_io_in\[25\]
*923 vgasp_io_in\[26\]
*924 vgasp_io_in\[27\]
*925 vgasp_io_in\[28\]
*926 vgasp_io_in\[29\]
*927 vgasp_io_in\[2\]
*928 vgasp_io_in\[30\]
*929 vgasp_io_in\[31\]
*930 vgasp_io_in\[32\]
*931 vgasp_io_in\[33\]
*932 vgasp_io_in\[34\]
*933 vgasp_io_in\[35\]
*934 vgasp_io_in\[36\]
*935 vgasp_io_in\[37\]
*936 vgasp_io_in\[3\]
*937 vgasp_io_in\[4\]
*938 vgasp_io_in\[5\]
*939 vgasp_io_in\[6\]
*940 vgasp_io_in\[7\]
*941 vgasp_io_in\[8\]
*942 vgasp_io_in\[9\]
*943 vgasp_rst
*944 vgasp_uio_oe\[0\]
*945 vgasp_uio_oe\[1\]
*946 vgasp_uio_oe\[2\]
*947 vgasp_uio_oe\[3\]
*948 vgasp_uio_oe\[4\]
*949 vgasp_uio_oe\[5\]
*950 vgasp_uio_oe\[6\]
*951 vgasp_uio_oe\[7\]
*952 vgasp_uio_out\[0\]
*953 vgasp_uio_out\[1\]
*954 vgasp_uio_out\[2\]
*955 vgasp_uio_out\[3\]
*956 vgasp_uio_out\[4\]
*957 vgasp_uio_out\[5\]
*958 vgasp_uio_out\[6\]
*959 vgasp_uio_out\[7\]
*960 vgasp_uo_out\[0\]
*961 vgasp_uo_out\[1\]
*962 vgasp_uo_out\[2\]
*963 vgasp_uo_out\[3\]
*964 vgasp_uo_out\[4\]
*965 vgasp_uo_out\[5\]
*966 vgasp_uo_out\[6\]
*967 vgasp_uo_out\[7\]
*968 top_design_mux
*969 top_raybox_zero_fsm
*970 top_raybox_zero_fsm2
*971 top_solo_squash
*972 top_vga_spi_rom
*973 urish_simon_says
*974 user_proj_cpu
*975 wrapped_wb_hyperram

*PORTS
io_in[0] I
io_in[10] I
io_in[11] I
io_in[12] I
io_in[13] I
io_in[14] I
io_in[15] I
io_in[16] I
io_in[17] I
io_in[18] I
io_in[19] I
io_in[1] I
io_in[20] I
io_in[21] I
io_in[22] I
io_in[23] I
io_in[24] I
io_in[25] I
io_in[26] I
io_in[27] I
io_in[28] I
io_in[29] I
io_in[2] I
io_in[30] I
io_in[31] I
io_in[32] I
io_in[33] I
io_in[34] I
io_in[35] I
io_in[36] I
io_in[37] I
io_in[3] I
io_in[4] I
io_in[5] I
io_in[6] I
io_in[7] I
io_in[8] I
io_in[9] I
io_oeb[0] O
io_oeb[10] O
io_oeb[11] O
io_oeb[12] O
io_oeb[13] O
io_oeb[14] O
io_oeb[15] O
io_oeb[16] O
io_oeb[17] O
io_oeb[18] O
io_oeb[19] O
io_oeb[1] O
io_oeb[20] O
io_oeb[21] O
io_oeb[22] O
io_oeb[23] O
io_oeb[24] O
io_oeb[25] O
io_oeb[26] O
io_oeb[27] O
io_oeb[28] O
io_oeb[29] O
io_oeb[2] O
io_oeb[30] O
io_oeb[31] O
io_oeb[32] O
io_oeb[33] O
io_oeb[34] O
io_oeb[35] O
io_oeb[36] O
io_oeb[37] O
io_oeb[3] O
io_oeb[4] O
io_oeb[5] O
io_oeb[6] O
io_oeb[7] O
io_oeb[8] O
io_oeb[9] O
io_out[0] O
io_out[10] O
io_out[11] O
io_out[12] O
io_out[13] O
io_out[14] O
io_out[15] O
io_out[16] O
io_out[17] O
io_out[18] O
io_out[19] O
io_out[1] O
io_out[20] O
io_out[21] O
io_out[22] O
io_out[23] O
io_out[24] O
io_out[25] O
io_out[26] O
io_out[27] O
io_out[28] O
io_out[29] O
io_out[2] O
io_out[30] O
io_out[31] O
io_out[32] O
io_out[33] O
io_out[34] O
io_out[35] O
io_out[36] O
io_out[37] O
io_out[3] O
io_out[4] O
io_out[5] O
io_out[6] O
io_out[7] O
io_out[8] O
io_out[9] O
la_data_in[0] I
la_data_in[10] I
la_data_in[11] I
la_data_in[12] I
la_data_in[13] I
la_data_in[14] I
la_data_in[15] I
la_data_in[16] I
la_data_in[17] I
la_data_in[18] I
la_data_in[19] I
la_data_in[1] I
la_data_in[20] I
la_data_in[21] I
la_data_in[22] I
la_data_in[23] I
la_data_in[24] I
la_data_in[25] I
la_data_in[26] I
la_data_in[27] I
la_data_in[28] I
la_data_in[29] I
la_data_in[2] I
la_data_in[30] I
la_data_in[31] I
la_data_in[32] I
la_data_in[33] I
la_data_in[34] I
la_data_in[35] I
la_data_in[36] I
la_data_in[37] I
la_data_in[38] I
la_data_in[39] I
la_data_in[3] I
la_data_in[40] I
la_data_in[41] I
la_data_in[42] I
la_data_in[43] I
la_data_in[44] I
la_data_in[45] I
la_data_in[46] I
la_data_in[47] I
la_data_in[48] I
la_data_in[49] I
la_data_in[4] I
la_data_in[50] I
la_data_in[51] I
la_data_in[52] I
la_data_in[53] I
la_data_in[54] I
la_data_in[55] I
la_data_in[56] I
la_data_in[57] I
la_data_in[58] I
la_data_in[59] I
la_data_in[5] I
la_data_in[60] I
la_data_in[61] I
la_data_in[62] I
la_data_in[63] I
la_data_in[6] I
la_data_in[7] I
la_data_in[8] I
la_data_in[9] I
la_data_out[0] O
la_data_out[10] O
la_data_out[11] O
la_data_out[12] O
la_data_out[13] O
la_data_out[14] O
la_data_out[15] O
la_data_out[16] O
la_data_out[17] O
la_data_out[18] O
la_data_out[19] O
la_data_out[1] O
la_data_out[20] O
la_data_out[21] O
la_data_out[22] O
la_data_out[23] O
la_data_out[24] O
la_data_out[25] O
la_data_out[26] O
la_data_out[27] O
la_data_out[28] O
la_data_out[29] O
la_data_out[2] O
la_data_out[30] O
la_data_out[31] O
la_data_out[32] O
la_data_out[33] O
la_data_out[34] O
la_data_out[35] O
la_data_out[36] O
la_data_out[37] O
la_data_out[38] O
la_data_out[39] O
la_data_out[3] O
la_data_out[40] O
la_data_out[41] O
la_data_out[42] O
la_data_out[43] O
la_data_out[44] O
la_data_out[45] O
la_data_out[46] O
la_data_out[47] O
la_data_out[48] O
la_data_out[49] O
la_data_out[4] O
la_data_out[50] O
la_data_out[51] O
la_data_out[52] O
la_data_out[53] O
la_data_out[54] O
la_data_out[55] O
la_data_out[56] O
la_data_out[57] O
la_data_out[58] O
la_data_out[59] O
la_data_out[5] O
la_data_out[60] O
la_data_out[61] O
la_data_out[62] O
la_data_out[63] O
la_data_out[6] O
la_data_out[7] O
la_data_out[8] O
la_data_out[9] O
la_oenb[0] I
la_oenb[10] I
la_oenb[11] I
la_oenb[12] I
la_oenb[13] I
la_oenb[14] I
la_oenb[15] I
la_oenb[16] I
la_oenb[17] I
la_oenb[18] I
la_oenb[19] I
la_oenb[1] I
la_oenb[20] I
la_oenb[21] I
la_oenb[22] I
la_oenb[23] I
la_oenb[24] I
la_oenb[25] I
la_oenb[26] I
la_oenb[27] I
la_oenb[28] I
la_oenb[29] I
la_oenb[2] I
la_oenb[30] I
la_oenb[31] I
la_oenb[32] I
la_oenb[33] I
la_oenb[34] I
la_oenb[35] I
la_oenb[36] I
la_oenb[37] I
la_oenb[38] I
la_oenb[39] I
la_oenb[3] I
la_oenb[40] I
la_oenb[41] I
la_oenb[42] I
la_oenb[43] I
la_oenb[44] I
la_oenb[45] I
la_oenb[46] I
la_oenb[47] I
la_oenb[48] I
la_oenb[49] I
la_oenb[4] I
la_oenb[50] I
la_oenb[51] I
la_oenb[52] I
la_oenb[53] I
la_oenb[54] I
la_oenb[55] I
la_oenb[56] I
la_oenb[57] I
la_oenb[58] I
la_oenb[59] I
la_oenb[5] I
la_oenb[60] I
la_oenb[61] I
la_oenb[62] I
la_oenb[63] I
la_oenb[6] I
la_oenb[7] I
la_oenb[8] I
la_oenb[9] I
user_clock2 I
user_irq[0] O
user_irq[1] O
user_irq[2] O
wb_clk_i I
wb_rst_i I
wbs_ack_o O
wbs_adr_i[0] I
wbs_adr_i[10] I
wbs_adr_i[11] I
wbs_adr_i[12] I
wbs_adr_i[13] I
wbs_adr_i[14] I
wbs_adr_i[15] I
wbs_adr_i[16] I
wbs_adr_i[17] I
wbs_adr_i[18] I
wbs_adr_i[19] I
wbs_adr_i[1] I
wbs_adr_i[20] I
wbs_adr_i[21] I
wbs_adr_i[22] I
wbs_adr_i[23] I
wbs_adr_i[24] I
wbs_adr_i[25] I
wbs_adr_i[26] I
wbs_adr_i[27] I
wbs_adr_i[28] I
wbs_adr_i[29] I
wbs_adr_i[2] I
wbs_adr_i[30] I
wbs_adr_i[31] I
wbs_adr_i[3] I
wbs_adr_i[4] I
wbs_adr_i[5] I
wbs_adr_i[6] I
wbs_adr_i[7] I
wbs_adr_i[8] I
wbs_adr_i[9] I
wbs_cyc_i I
wbs_dat_i[0] I
wbs_dat_i[10] I
wbs_dat_i[11] I
wbs_dat_i[12] I
wbs_dat_i[13] I
wbs_dat_i[14] I
wbs_dat_i[15] I
wbs_dat_i[16] I
wbs_dat_i[17] I
wbs_dat_i[18] I
wbs_dat_i[19] I
wbs_dat_i[1] I
wbs_dat_i[20] I
wbs_dat_i[21] I
wbs_dat_i[22] I
wbs_dat_i[23] I
wbs_dat_i[24] I
wbs_dat_i[25] I
wbs_dat_i[26] I
wbs_dat_i[27] I
wbs_dat_i[28] I
wbs_dat_i[29] I
wbs_dat_i[2] I
wbs_dat_i[30] I
wbs_dat_i[31] I
wbs_dat_i[3] I
wbs_dat_i[4] I
wbs_dat_i[5] I
wbs_dat_i[6] I
wbs_dat_i[7] I
wbs_dat_i[8] I
wbs_dat_i[9] I
wbs_dat_o[0] O
wbs_dat_o[10] O
wbs_dat_o[11] O
wbs_dat_o[12] O
wbs_dat_o[13] O
wbs_dat_o[14] O
wbs_dat_o[15] O
wbs_dat_o[16] O
wbs_dat_o[17] O
wbs_dat_o[18] O
wbs_dat_o[19] O
wbs_dat_o[1] O
wbs_dat_o[20] O
wbs_dat_o[21] O
wbs_dat_o[22] O
wbs_dat_o[23] O
wbs_dat_o[24] O
wbs_dat_o[25] O
wbs_dat_o[26] O
wbs_dat_o[27] O
wbs_dat_o[28] O
wbs_dat_o[29] O
wbs_dat_o[2] O
wbs_dat_o[30] O
wbs_dat_o[31] O
wbs_dat_o[3] O
wbs_dat_o[4] O
wbs_dat_o[5] O
wbs_dat_o[6] O
wbs_dat_o[7] O
wbs_dat_o[8] O
wbs_dat_o[9] O
wbs_sel_i[0] I
wbs_sel_i[1] I
wbs_sel_i[2] I
wbs_sel_i[3] I
wbs_stb_i I
wbs_we_i I

*D_NET *1 0.267697
*CONN
*P io_in[0] I
*I *968:io_in[0] I *D top_design_mux
*CAP
1 io_in[0] 0.00932032
2 *968:io_in[0] 0.00252671
3 *1:9 0.0341704
4 *1:7 0.0316437
5 *1:5 0.00932032
6 *968:io_in[0] *968:mux_conf_clk 0
7 *1:5 *158:9 0.000641114
8 *1:5 *166:11 0
9 *1:9 *39:9 0.180074
*RES
1 io_in[0] *1:5 81.38 
2 *1:5 *1:7 4.5 
3 *1:7 *1:9 499.304 
4 *1:9 *968:io_in[0] 26.808 
*END

*D_NET *2 0.119159
*CONN
*P io_in[10] I
*I *968:io_in[10] I *D top_design_mux
*CAP
1 io_in[10] 0.00110032
2 *968:io_in[10] 0.0109326
3 *2:11 0.0109326
4 *2:9 0.011073
5 *2:7 0.0121733
6 *968:io_in[10] *76:7 0
7 *968:io_in[10] *78:7 0
8 *2:9 *3:9 0.0729472
*RES
1 io_in[10] *2:7 13.288 
2 *2:7 *2:9 187.304 
3 *2:9 *2:11 4.5 
4 *2:11 *968:io_in[10] 94.9 
*END

*D_NET *3 0.207773
*CONN
*P io_in[11] I
*I *968:io_in[11] I *D top_design_mux
*CAP
1 io_in[11] 0.00112292
2 *968:io_in[11] 0.0109531
3 *3:11 0.0109531
4 *3:9 0.00516358
5 *3:7 0.0062865
6 *968:io_in[11] *40:7 0
7 *968:io_in[11] *79:7 0
8 *3:9 *4:9 0.100346
9 *2:9 *3:9 0.0729472
*RES
1 io_in[11] *3:7 13.496 
2 *3:7 *3:9 255.944 
3 *3:9 *3:11 4.5 
4 *3:11 *968:io_in[11] 94.692 
*END

*D_NET *4 0.263208
*CONN
*P io_in[12] I
*I *968:io_in[12] I *D top_design_mux
*CAP
1 io_in[12] 0.00114553
2 *968:io_in[12] 0.0109735
3 *4:11 0.0109735
4 *4:9 0.00536403
5 *4:7 0.00650956
6 *968:io_in[12] *41:7 0
7 *968:io_in[12] *80:7 0
8 *4:9 *5:9 0.127896
9 *3:9 *4:9 0.100346
*RES
1 io_in[12] *4:7 13.704 
2 *4:7 *4:9 324.584 
3 *4:9 *4:11 4.5 
4 *4:11 *968:io_in[12] 94.484 
*END

*D_NET *5 0.324732
*CONN
*P io_in[13] I
*I *968:io_in[13] I *D top_design_mux
*CAP
1 io_in[13] 0.00116814
2 *968:io_in[13] 0.00659978
3 *5:11 0.00659978
4 *5:9 0.00550514
5 *5:7 0.00667328
6 *968:io_in[13] io_oeb[7] 0.0148967
7 *968:io_in[13] *42:7 0
8 *968:io_in[13] *81:7 0
9 *5:9 *6:9 0.155393
10 *4:9 *5:9 0.127896
*RES
1 io_in[13] *5:7 13.912 
2 *5:7 *5:9 393.224 
3 *5:9 *5:11 4.5 
4 *5:11 *968:io_in[13] 94.276 
*END

*D_NET *6 0.241569
*CONN
*P io_in[14] I
*I *968:io_in[14] I *D top_design_mux
*CAP
1 io_in[14] 0.00145946
2 *968:io_in[14] 0.0109928
3 *6:11 0.0109928
4 *6:9 0.0306354
5 *6:7 0.0320948
6 *968:io_in[14] *43:7 0
7 *968:io_in[14] *82:7 0
8 *5:9 *6:9 0.155393
*RES
1 io_in[14] *6:7 14.12 
2 *6:7 *6:9 461.864 
3 *6:9 *6:11 4.5 
4 *6:11 *968:io_in[14] 94.068 
*END

*D_NET *7 0.147159
*CONN
*P io_in[15] I
*I *968:io_in[15] I *D top_design_mux
*CAP
1 io_in[15] 0.0616755
2 *968:io_in[15] 0.0119039
3 *7:7 0.0119039
4 *7:5 0.0616755
5 *968:io_in[15] *44:7 0
6 *968:io_in[15] *83:7 0
*RES
1 io_in[15] *7:5 519.012 
2 *7:5 *7:7 4.5 
3 *7:7 *968:io_in[15] 83.252 
*END

*D_NET *8 0.17268
*CONN
*P io_in[16] I
*I *968:io_in[16] I *D top_design_mux
*CAP
1 io_in[16] 0.00113656
2 *968:io_in[16] 0.0594156
3 *8:11 0.0594156
4 *8:9 0.00944422
5 *8:7 0.0105808
6 *968:io_in[16] *9:11 0.000110346
7 *8:9 *84:9 0.0325773
*RES
1 io_in[16] *8:7 14.12 
2 *8:7 *8:9 122.616 
3 *8:9 *8:11 4.5 
4 *8:11 *968:io_in[16] 502.58 
*END

*D_NET *9 0.123064
*CONN
*P io_in[17] I
*I *968:io_in[17] I *D top_design_mux
*CAP
1 io_in[17] 0.00177732