*SPEF "ieee 1481-1999"
*DESIGN "user_project_wrapper"
*DATE "11:11:11 Fri 11 11, 1111"
*VENDOR "OpenRCX"
*PROGRAM "Parallel Extraction"
*VERSION "1.0"
*DESIGN_FLOW "NAME_SCOPE LOCAL" "PIN_CAP NONE"
*DIVIDER /
*DELIMITER :
*BUS_DELIMITER []
*T_UNIT 1 NS
*C_UNIT 1 PF
*R_UNIT 1 OHM
*L_UNIT 1 HENRY

*NAME_MAP
*1 io_in[0]
*2 io_in[10]
*3 io_in[11]
*4 io_in[12]
*5 io_in[13]
*6 io_in[14]
*7 io_in[15]
*8 io_in[16]
*9 io_in[17]
*10 io_in[18]
*11 io_in[19]
*12 io_in[1]
*13 io_in[20]
*14 io_in[21]
*15 io_in[22]
*16 io_in[23]
*17 io_in[24]
*18 io_in[25]
*19 io_in[26]
*20 io_in[27]
*21 io_in[28]
*22 io_in[29]
*23 io_in[2]
*24 io_in[30]
*25 io_in[31]
*26 io_in[32]
*27 io_in[33]
*28 io_in[34]
*29 io_in[35]
*30 io_in[36]
*31 io_in[37]
*32 io_in[3]
*33 io_in[4]
*34 io_in[5]
*35 io_in[6]
*36 io_in[7]
*37 io_in[8]
*38 io_in[9]
*39 io_oeb[0]
*40 io_oeb[10]
*41 io_oeb[11]
*42 io_oeb[12]
*43 io_oeb[13]
*44 io_oeb[14]
*45 io_oeb[15]
*46 anton_io_oeb\[4\]
*47 io_oeb[17]
*48 io_oeb[18]
*49 io_oeb[19]
*50 io_oeb[1]
*51 io_oeb[20]
*52 io_oeb[21]
*53 io_oeb[22]
*54 io_oeb[23]
*55 io_oeb[24]
*56 io_oeb[25]
*57 io_oeb[26]
*58 io_oeb[27]
*59 io_oeb[28]
*60 io_oeb[29]
*61 io_oeb[2]
*62 io_oeb[30]
*63 io_oeb[31]
*64 io_oeb[32]
*65 io_oeb[33]
*66 io_oeb[34]
*67 io_oeb[35]
*68 io_oeb[36]
*69 io_oeb[37]
*70 io_oeb[3]
*71 io_oeb[4]
*72 io_oeb[5]
*73 io_oeb[6]
*74 io_oeb[7]
*75 io_oeb[8]
*76 io_oeb[9]
*77 io_out[0]
*78 io_out[10]
*79 io_out[11]
*80 anton_io_out\[0\]
*81 anton_io_out\[1\]
*82 anton_io_out\[2\]
*83 anton_io_out\[3\]
*84 anton_io_out\[4\]
*85 io_out[17]
*86 io_out[18]
*87 io_out[19]
*88 io_out[1]
*89 io_out[20]
*90 io_out[21]
*91 io_out[22]
*92 io_out[23]
*93 io_out[24]
*94 io_out[25]
*95 io_out[26]
*96 io_out[27]
*97 io_out[28]
*98 io_out[29]
*99 io_out[2]
*100 io_out[30]
*101 io_out[31]
*102 io_out[32]
*103 io_out[33]
*104 io_out[34]
*105 io_out[35]
*106 io_out[36]
*107 io_out[37]
*108 io_out[3]
*109 io_out[4]
*110 io_out[5]
*111 io_out[6]
*112 io_out[7]
*113 io_out[8]
*114 io_out[9]
*115 la_data_in[0]
*116 la_data_in[10]
*117 la_data_in[11]
*118 la_data_in[12]
*119 la_data_in[13]
*120 la_data_in[14]
*121 la_data_in[15]
*122 la_data_in[16]
*123 la_data_in[17]
*124 la_data_in[18]
*125 la_data_in[19]
*126 la_data_in[1]
*127 la_data_in[20]
*128 la_data_in[21]
*129 la_data_in[22]
*130 la_data_in[23]
*131 la_data_in[24]
*132 la_data_in[25]
*133 la_data_in[26]
*134 la_data_in[27]
*135 la_data_in[28]
*136 la_data_in[29]
*137 la_data_in[2]
*138 la_data_in[30]
*139 la_data_in[31]
*140 la_data_in[32]
*141 la_data_in[33]
*142 la_data_in[34]
*143 la_data_in[35]
*144 la_data_in[36]
*145 la_data_in[37]
*146 la_data_in[38]
*147 la_data_in[39]
*148 la_data_in[3]
*149 la_data_in[40]
*150 la_data_in[41]
*151 la_data_in[42]
*152 la_data_in[43]
*153 la_data_in[44]
*154 la_data_in[45]
*155 la_data_in[46]
*156 la_data_in[47]
*157 la_data_in[48]
*158 la_data_in[49]
*159 la_data_in[4]
*160 la_data_in[50]
*161 la_data_in[51]
*162 la_data_in[52]
*163 la_data_in[53]
*164 la_data_in[54]
*165 la_data_in[55]
*166 la_data_in[56]
*167 la_data_in[57]
*168 la_data_in[58]
*169 la_data_in[59]
*170 la_data_in[5]
*171 la_data_in[60]
*172 la_data_in[61]
*173 la_data_in[62]
*174 la_data_in[63]
*175 la_data_in[6]
*176 la_data_in[7]
*177 la_data_in[8]
*178 la_data_in[9]
*179 la_data_out[0]
*180 la_data_out[10]
*181 la_data_out[11]
*182 la_data_out[12]
*183 la_data_out[13]
*184 la_data_out[14]
*185 la_data_out[15]
*186 la_data_out[16]
*187 la_data_out[17]
*188 la_data_out[18]
*189 la_data_out[19]
*190 la_data_out[1]
*191 la_data_out[20]
*192 la_data_out[21]
*193 la_data_out[22]
*194 la_data_out[23]
*195 la_data_out[24]
*196 la_data_out[25]
*197 la_data_out[26]
*198 la_data_out[27]
*199 la_data_out[28]
*200 la_data_out[29]
*201 la_data_out[2]
*202 la_data_out[30]
*203 la_data_out[31]
*204 la_data_out[32]
*205 la_data_out[33]
*206 la_data_out[34]
*207 la_data_out[35]
*208 la_data_out[36]
*209 la_data_out[37]
*210 la_data_out[38]
*211 la_data_out[39]
*212 la_data_out[3]
*213 la_data_out[40]
*214 la_data_out[41]
*215 la_data_out[42]
*216 la_data_out[43]
*217 la_data_out[44]
*218 la_data_out[45]
*219 la_data_out[46]
*220 la_data_out[47]
*221 la_data_out[48]
*222 la_data_out[49]
*223 la_data_out[4]
*224 la_data_out[50]
*225 la_data_out[51]
*226 la_data_out[52]
*227 la_data_out[53]
*228 la_data_out[54]
*229 la_data_out[55]
*230 la_data_out[56]
*231 la_data_out[57]
*232 la_data_out[58]
*233 la_data_out[59]
*234 la_data_out[5]
*235 la_data_out[60]
*236 la_data_out[61]
*237 la_data_out[62]
*238 la_data_out[63]
*239 la_data_out[6]
*240 la_data_out[7]
*241 la_data_out[8]
*242 la_data_out[9]
*243 la_oenb[0]
*244 la_oenb[10]
*245 la_oenb[11]
*246 la_oenb[12]
*247 la_oenb[13]
*248 la_oenb[14]
*249 la_oenb[15]
*250 la_oenb[16]
*251 la_oenb[17]
*252 la_oenb[18]
*253 la_oenb[19]
*254 la_oenb[1]
*255 la_oenb[20]
*256 la_oenb[21]
*257 la_oenb[22]
*258 la_oenb[23]
*259 la_oenb[24]
*260 la_oenb[25]
*261 la_oenb[26]
*262 la_oenb[27]
*263 la_oenb[28]
*264 la_oenb[29]
*265 la_oenb[2]
*266 la_oenb[30]
*267 la_oenb[31]
*268 la_oenb[32]
*269 la_oenb[33]
*270 la_oenb[34]
*271 la_oenb[35]
*272 la_oenb[36]
*273 la_oenb[37]
*274 la_oenb[38]
*275 la_oenb[39]
*276 la_oenb[3]
*277 la_oenb[40]
*278 la_oenb[41]
*279 la_oenb[42]
*280 la_oenb[43]
*281 la_oenb[44]
*282 la_oenb[45]
*283 la_oenb[46]
*284 la_oenb[47]
*285 la_oenb[48]
*286 la_oenb[49]
*287 la_oenb[4]
*288 la_oenb[50]
*289 la_oenb[51]
*290 la_oenb[52]
*291 la_oenb[53]
*292 la_oenb[54]
*293 la_oenb[55]
*294 la_oenb[56]
*295 la_oenb[57]
*296 la_oenb[58]
*297 la_oenb[59]
*298 la_oenb[5]
*299 la_oenb[60]
*300 la_oenb[61]
*301 la_oenb[62]
*302 la_oenb[63]
*303 la_oenb[6]
*304 la_oenb[7]
*305 la_oenb[8]
*306 la_oenb[9]
*307 user_clock2
*308 user_irq[0]
*309 user_irq[1]
*310 user_irq[2]
*313 wb_clk_i
*314 wb_rst_i
*315 wbs_ack_o
*316 wbs_adr_i[0]
*317 wbs_adr_i[10]
*318 wbs_adr_i[11]
*319 wbs_adr_i[12]
*320 wbs_adr_i[13]
*321 wbs_adr_i[14]
*322 wbs_adr_i[15]
*323 wbs_adr_i[16]
*324 wbs_adr_i[17]
*325 wbs_adr_i[18]
*326 wbs_adr_i[19]
*327 wbs_adr_i[1]
*328 wbs_adr_i[20]
*329 wbs_adr_i[21]
*330 wbs_adr_i[22]
*331 wbs_adr_i[23]
*332 wbs_adr_i[24]
*333 wbs_adr_i[25]
*334 wbs_adr_i[26]
*335 wbs_adr_i[27]
*336 wbs_adr_i[28]
*337 wbs_adr_i[29]
*338 wbs_adr_i[2]
*339 wbs_adr_i[30]
*340 wbs_adr_i[31]
*341 wbs_adr_i[3]
*342 wbs_adr_i[4]
*343 wbs_adr_i[5]
*344 wbs_adr_i[6]
*345 wbs_adr_i[7]
*346 wbs_adr_i[8]
*347 wbs_adr_i[9]
*348 wbs_cyc_i
*349 wbs_dat_i[0]
*350 wbs_dat_i[10]
*351 wbs_dat_i[11]
*352 wbs_dat_i[12]
*353 wbs_dat_i[13]
*354 wbs_dat_i[14]
*355 wbs_dat_i[15]
*356 wbs_dat_i[16]
*357 wbs_dat_i[17]
*358 wbs_dat_i[18]
*359 wbs_dat_i[19]
*360 wbs_dat_i[1]
*361 wbs_dat_i[20]
*362 wbs_dat_i[21]
*363 wbs_dat_i[22]
*364 wbs_dat_i[23]
*365 wbs_dat_i[24]
*366 wbs_dat_i[25]
*367 wbs_dat_i[26]
*368 wbs_dat_i[27]
*369 wbs_dat_i[28]
*370 wbs_dat_i[29]
*371 wbs_dat_i[2]
*372 wbs_dat_i[30]
*373 wbs_dat_i[31]
*374 wbs_dat_i[3]
*375 wbs_dat_i[4]
*376 wbs_dat_i[5]
*377 wbs_dat_i[6]
*378 wbs_dat_i[7]
*379 wbs_dat_i[8]
*380 wbs_dat_i[9]
*381 wbs_dat_o[0]
*382 wbs_dat_o[10]
*383 wbs_dat_o[11]
*384 wbs_dat_o[12]
*385 wbs_dat_o[13]
*386 wbs_dat_o[14]
*387 wbs_dat_o[15]
*388 wbs_dat_o[16]
*389 wbs_dat_o[17]
*390 wbs_dat_o[18]
*391 wbs_dat_o[19]
*392 wbs_dat_o[1]
*393 wbs_dat_o[20]
*394 wbs_dat_o[21]
*395 wbs_dat_o[22]
*396 wbs_dat_o[23]
*397 wbs_dat_o[24]
*398 wbs_dat_o[25]
*399 wbs_dat_o[26]
*400 wbs_dat_o[27]
*401 wbs_dat_o[28]
*402 wbs_dat_o[29]
*403 wbs_dat_o[2]
*404 wbs_dat_o[30]
*405 wbs_dat_o[31]
*406 wbs_dat_o[3]
*407 wbs_dat_o[4]
*408 wbs_dat_o[5]
*409 wbs_dat_o[6]
*410 wbs_dat_o[7]
*411 wbs_dat_o[8]
*412 wbs_dat_o[9]
*413 wbs_sel_i[0]
*414 wbs_sel_i[1]
*415 wbs_sel_i[2]
*416 wbs_sel_i[3]
*417 wbs_stb_i
*418 wbs_we_i
*419 a0s\[10\]
*420 a0s\[11\]
*421 a0s\[12\]
*422 a0s\[13\]
*423 a0s\[14\]
*424 a0s\[15\]
*425 a0s\[9\]
*426 a1s\[10\]
*427 a1s\[11\]
*428 a1s\[12\]
*429 a1s\[13\]
*430 a1s\[14\]
*431 a1s\[15\]
*432 a1s\[1\]
*433 a1s\[2\]
*434 a1s\[3\]
*435 a1s\[4\]
*436 a1s\[5\]
*437 a1s\[6\]
*438 a1s\[7\]
*439 a1s\[8\]
*440 a1s\[9\]
*441 anton_gpout\[4\]
*442 anton_gpout\[5\]
*443 anton_o_reset
*444 top_ew_algofoogle

*PORTS
io_in[0] I
io_in[10] I
io_in[11] I
io_in[12] I
io_in[13] I
io_in[14] I
io_in[15] I
io_in[16] I
io_in[17] I
io_in[18] I
io_in[19] I
io_in[1] I
io_in[20] I
io_in[21] I
io_in[22] I
io_in[23] I
io_in[24] I
io_in[25] I
io_in[26] I
io_in[27] I
io_in[28] I
io_in[29] I
io_in[2] I
io_in[30] I
io_in[31] I
io_in[32] I
io_in[33] I
io_in[34] I
io_in[35] I
io_in[36] I
io_in[37] I
io_in[3] I
io_in[4] I
io_in[5] I
io_in[6] I
io_in[7] I
io_in[8] I
io_in[9] I
io_oeb[0] O
io_oeb[10] O
io_oeb[11] O
io_oeb[12] O
io_oeb[13] O
io_oeb[14] O
io_oeb[15] O
io_oeb[16] O
io_oeb[17] O
io_oeb[18] O
io_oeb[19] O
io_oeb[1] O
io_oeb[20] O
io_oeb[21] O
io_oeb[22] O
io_oeb[23] O
io_oeb[24] O
io_oeb[25] O
io_oeb[26] O
io_oeb[27] O
io_oeb[28] O
io_oeb[29] O
io_oeb[2] O
io_oeb[30] O
io_oeb[31] O
io_oeb[32] O
io_oeb[33] O
io_oeb[34] O
io_oeb[35] O
io_oeb[36] O
io_oeb[37] O
io_oeb[3] O
io_oeb[4] O
io_oeb[5] O
io_oeb[6] O
io_oeb[7] O
io_oeb[8] O
io_oeb[9] O
io_out[0] O
io_out[10] O
io_out[11] O
io_out[12] O
io_out[13] O
io_out[14] O
io_out[15] O
io_out[16] O
io_out[17] O
io_out[18] O
io_out[19] O
io_out[1] O
io_out[20] O
io_out[21] O
io_out[22] O
io_out[23] O
io_out[24] O
io_out[25] O
io_out[26] O
io_out[27] O
io_out[28] O
io_out[29] O
io_out[2] O
io_out[30] O
io_out[31] O
io_out[32] O
io_out[33] O
io_out[34] O
io_out[35] O
io_out[36] O
io_out[37] O
io_out[3] O
io_out[4] O
io_out[5] O
io_out[6] O
io_out[7] O
io_out[8] O
io_out[9] O
la_data_in[0] I
la_data_in[10] I
la_data_in[11] I
la_data_in[12] I
la_data_in[13] I
la_data_in[14] I
la_data_in[15] I
la_data_in[16] I
la_data_in[17] I
la_data_in[18] I
la_data_in[19] I
la_data_in[1] I
la_data_in[20] I
la_data_in[21] I
la_data_in[22] I
la_data_in[23] I
la_data_in[24] I
la_data_in[25] I
la_data_in[26] I
la_data_in[27] I
la_data_in[28] I
la_data_in[29] I
la_data_in[2] I
la_data_in[30] I
la_data_in[31] I
la_data_in[32] I
la_data_in[33] I
la_data_in[34] I
la_data_in[35] I
la_data_in[36] I
la_data_in[37] I
la_data_in[38] I
la_data_in[39] I
la_data_in[3] I
la_data_in[40] I
la_data_in[41] I
la_data_in[42] I
la_data_in[43] I
la_data_in[44] I
la_data_in[45] I
la_data_in[46] I
la_data_in[47] I
la_data_in[48] I
la_data_in[49] I
la_data_in[4] I
la_data_in[50] I
la_data_in[51] I
la_data_in[52] I
la_data_in[53] I
la_data_in[54] I
la_data_in[55] I
la_data_in[56] I
la_data_in[57] I
la_data_in[58] I
la_data_in[59] I
la_data_in[5] I
la_data_in[60] I
la_data_in[61] I
la_data_in[62] I
la_data_in[63] I
la_data_in[6] I
la_data_in[7] I
la_data_in[8] I
la_data_in[9] I
la_data_out[0] O
la_data_out[10] O
la_data_out[11] O
la_data_out[12] O
la_data_out[13] O
la_data_out[14] O
la_data_out[15] O
la_data_out[16] O
la_data_out[17] O
la_data_out[18] O
la_data_out[19] O
la_data_out[1] O
la_data_out[20] O
la_data_out[21] O
la_data_out[22] O
la_data_out[23] O
la_data_out[24] O
la_data_out[25] O
la_data_out[26] O
la_data_out[27] O
la_data_out[28] O
la_data_out[29] O
la_data_out[2] O
la_data_out[30] O
la_data_out[31] O
la_data_out[32] O
la_data_out[33] O
la_data_out[34] O
la_data_out[35] O
la_data_out[36] O
la_data_out[37] O
la_data_out[38] O
la_data_out[39] O
la_data_out[3] O
la_data_out[40] O
la_data_out[41] O
la_data_out[42] O
la_data_out[43] O
la_data_out[44] O
la_data_out[45] O
la_data_out[46] O
la_data_out[47] O
la_data_out[48] O
la_data_out[49] O
la_data_out[4] O
la_data_out[50] O
la_data_out[51] O
la_data_out[52] O
la_data_out[53] O
la_data_out[54] O
la_data_out[55] O
la_data_out[56] O
la_data_out[57] O
la_data_out[58] O
la_data_out[59] O
la_data_out[5] O
la_data_out[60] O
la_data_out[61] O
la_data_out[62] O
la_data_out[63] O
la_data_out[6] O
la_data_out[7] O
la_data_out[8] O
la_data_out[9] O
la_oenb[0] I
la_oenb[10] I
la_oenb[11] I
la_oenb[12] I
la_oenb[13] I
la_oenb[14] I
la_oenb[15] I
la_oenb[16] I
la_oenb[17] I
la_oenb[18] I
la_oenb[19] I
la_oenb[1] I
la_oenb[20] I
la_oenb[21] I
la_oenb[22] I
la_oenb[23] I
la_oenb[24] I
la_oenb[25] I
la_oenb[26] I
la_oenb[27] I
la_oenb[28] I
la_oenb[29] I
la_oenb[2] I
la_oenb[30] I
la_oenb[31] I
la_oenb[32] I
la_oenb[33] I
la_oenb[34] I
la_oenb[35] I
la_oenb[36] I
la_oenb[37] I
la_oenb[38] I
la_oenb[39] I
la_oenb[3] I
la_oenb[40] I
la_oenb[41] I
la_oenb[42] I
la_oenb[43] I
la_oenb[44] I
la_oenb[45] I
la_oenb[46] I
la_oenb[47] I
la_oenb[48] I
la_oenb[49] I
la_oenb[4] I
la_oenb[50] I
la_oenb[51] I
la_oenb[52] I
la_oenb[53] I
la_oenb[54] I
la_oenb[55] I
la_oenb[56] I
la_oenb[57] I
la_oenb[58] I
la_oenb[59] I
la_oenb[5] I
la_oenb[60] I
la_oenb[61] I
la_oenb[62] I
la_oenb[63] I
la_oenb[6] I
la_oenb[7] I
la_oenb[8] I
la_oenb[9] I
user_clock2 I
user_irq[0] O
user_irq[1] O
user_irq[2] O
wb_clk_i I
wb_rst_i I
wbs_ack_o O
wbs_adr_i[0] I
wbs_adr_i[10] I
wbs_adr_i[11] I
wbs_adr_i[12] I
wbs_adr_i[13] I
wbs_adr_i[14] I
wbs_adr_i[15] I
wbs_adr_i[16] I
wbs_adr_i[17] I
wbs_adr_i[18] I
wbs_adr_i[19] I
wbs_adr_i[1] I
wbs_adr_i[20] I
wbs_adr_i[21] I
wbs_adr_i[22] I
wbs_adr_i[23] I
wbs_adr_i[24] I
wbs_adr_i[25] I
wbs_adr_i[26] I
wbs_adr_i[27] I
wbs_adr_i[28] I
wbs_adr_i[29] I
wbs_adr_i[2] I
wbs_adr_i[30] I
wbs_adr_i[31] I
wbs_adr_i[3] I
wbs_adr_i[4] I
wbs_adr_i[5] I
wbs_adr_i[6] I
wbs_adr_i[7] I
wbs_adr_i[8] I
wbs_adr_i[9] I
wbs_cyc_i I
wbs_dat_i[0] I
wbs_dat_i[10] I
wbs_dat_i[11] I
wbs_dat_i[12] I
wbs_dat_i[13] I
wbs_dat_i[14] I
wbs_dat_i[15] I
wbs_dat_i[16] I
wbs_dat_i[17] I
wbs_dat_i[18] I
wbs_dat_i[19] I
wbs_dat_i[1] I
wbs_dat_i[20] I
wbs_dat_i[21] I
wbs_dat_i[22] I
wbs_dat_i[23] I
wbs_dat_i[24] I
wbs_dat_i[25] I
wbs_dat_i[26] I
wbs_dat_i[27] I
wbs_dat_i[28] I
wbs_dat_i[29] I
wbs_dat_i[2] I
wbs_dat_i[30] I
wbs_dat_i[31] I
wbs_dat_i[3] I
wbs_dat_i[4] I
wbs_dat_i[5] I
wbs_dat_i[6] I
wbs_dat_i[7] I
wbs_dat_i[8] I
wbs_dat_i[9] I
wbs_dat_o[0] O
wbs_dat_o[10] O
wbs_dat_o[11] O
wbs_dat_o[12] O
wbs_dat_o[13] O
wbs_dat_o[14] O
wbs_dat_o[15] O
wbs_dat_o[16] O
wbs_dat_o[17] O
wbs_dat_o[18] O
wbs_dat_o[19] O
wbs_dat_o[1] O
wbs_dat_o[20] O
wbs_dat_o[21] O
wbs_dat_o[22] O
wbs_dat_o[23] O
wbs_dat_o[24] O
wbs_dat_o[25] O
wbs_dat_o[26] O
wbs_dat_o[27] O
wbs_dat_o[28] O
wbs_dat_o[29] O
wbs_dat_o[2] O
wbs_dat_o[30] O
wbs_dat_o[31] O
wbs_dat_o[3] O
wbs_dat_o[4] O
wbs_dat_o[5] O
wbs_dat_o[6] O
wbs_dat_o[7] O
wbs_dat_o[8] O
wbs_dat_o[9] O
wbs_sel_i[0] I
wbs_sel_i[1] I
wbs_sel_i[2] I
wbs_sel_i[3] I
wbs_stb_i I
wbs_we_i I

*D_NET *3 0.189438
*CONN
*P io_in[11] I
*I *444:i_clk I *D top_ew_algofoogle
*CAP
1 io_in[11] 0.00178905
2 *444:i_clk 0.00399155
3 *3:13 0.0704312
4 *3:11 0.0664397
5 *3:9 0.0224987
6 *3:7 0.0242877
*RES
1 io_in[11] *3:7 16.09 
2 *3:7 *3:9 162.716 
3 *3:9 *3:11 4.5 
4 *3:11 *3:13 473.252 
5 *3:13 *444:i_clk 37.386 
*END

*D_NET *8 0.274762
*CONN
*P io_in[16] I
*I *444:i_tex_in[0] I *D top_ew_algofoogle
*CAP
1 io_in[16] 0.053611
2 *444:i_tex_in[0] 0.000855662
3 *8:13 0.0185461
4 *8:11 0.0176905
5 *8:9 0.0538668
6 *8:7 0.0538668
7 *8:5 0.053611
8 *444:i_tex_in[0] *444:i_gpout5_sel[0] 0.000129249
9 *444:i_tex_in[0] *82:7 0.000121124
10 *8:13 *79:9 0.000340753
11 *8:13 *80:9 0.00741525
12 *8:13 *116:13 0.00767652
13 *8:13 *117:13 0.000166035
14 *8:13 *118:13 0.000717116
15 *8:13 *121:13 0.00563084
16 *8:13 *131:13 0.000123094
17 *8:13 *150:13 0.000394426
*RES
1 io_in[16] *8:5 367.27 
2 *8:5 *8:7 4.5 
3 *8:7 *8:9 382.964 
4 *8:9 *8:11 4.5 
5 *8:11 *8:13 144.324 
6 *8:13 *444:i_tex_in[0] 9.554 
*END

*D_NET *25 0.116404
*CONN
*P io_in[31] I
*I *444:i_tex_in[1] I *D top_ew_algofoogle
*CAP
1 io_in[31] 0.000737728
2 *444:i_tex_in[1] 0.0454043
3 *25:11 0.0454043
4 *25:9 0.0104074
5 *25:7 0.0111451
6 *444:i_tex_in[1] *444:i_gpout0_sel[2] 1.15437e-05
7 *444:i_tex_in[1] *444:i_gpout0_sel[3] 3.74664e-05
8 *25:9 *26:11 0.000538343
9 *25:9 *28:9 0.00271752
*RES
1 io_in[31] *25:7 9.858 
2 *25:7 *25:9 80.484 
3 *25:9 *25:11 4.5 
4 *25:11 *444:i_tex_in[1] 319.998 
*END

*D_NET *26 0.0967045
*CONN
*P io_in[32] I
*I *444:i_tex_in[2] I *D top_ew_algofoogle
*CAP
1 io_in[32] 0.00259964
2 *444:i_tex_in[2] 0.0395225
3 *26:11 0.0421222
4 *444:i_tex_in[2] *444:i_gpout1_sel[3] 0.000221527
5 *444:i_tex_in[2] *444:i_test_wci 0.0117003
6 *25:9 *26:11 0.000538343
*RES
1 io_in[32] *26:11 28.722 
2 *26:11 *444:i_tex_in[2] 319.086 
*END

*D_NET *28 0.121276
*CONN
*P io_in[34] I
*I *444:i_tex_in[3] I *D top_ew_algofoogle
*CAP
1 io_in[34] 0.000717091
2 *444:i_tex_in[3] 0.0449365
3 *28:11 0.0449365
4 *28:9 0.0131047
5 *28:7 0.0138218
6 *444:i_tex_in[3] *444:i_vec_csb 0.000635237
7 *444:i_tex_in[3] *444:i_vec_sclk 0.000406552
8 *25:9 *28:9 0.00271752
*RES
1 io_in[34] *28:7 9.706 
2 *28:7 *28:9 98.116 
3 *28:9 *28:11 4.5 
4 *28:11 *444:i_tex_in[3] 320.15 
*END

*D_NET *29 0.106939
*CONN
*P io_in[35] I
*I *444:i_spare_1 I *D top_ew_algofoogle
*CAP
1 io_in[35] 0.00153675
2 *444:i_spare_1 0.00052189
3 *29:13 0.0430913
4 *29:11 0.0441061
5 *444:i_spare_1 *444:i_spare_0 9.94187e-05
6 *29:13 *51:9 0.0175836
7 *29:13 *134:9 0
*RES
1 io_in[35] *29:11 19.602 
2 *29:11 *29:13 322.012 
3 *29:13 *444:i_spare_1 8.034 
*END

*D_NET *41 0.189028
*CONN
*P io_oeb[11] O
*I *444:ones[0] O *D top_ew_algofoogle
*CAP
1 io_oeb[11] 0.0643465
2 *444:ones[0] 0.0301674
3 *41:7 0.0643465
4 *41:5 0.0301674
*RES
1 *444:ones[0] *41:5 206.507 
2 *41:5 *41:7 4.5 
3 *41:7 io_oeb[11] 458.014 
*END

*D_NET *42 0.240969
*CONN
*P io_oeb[12] O
*I *444:zeros[4] O *D top_ew_algofoogle
*CAP
1 io_oeb[12] 0.0170041
2 *444:zeros[4] 0.000640978
3 *42:15 0.0170041
4 *42:13 0.077551
5 *42:11 0.077551
6 *42:9 0.0252886
7 *42:7 0.0259296
8 *42:9 *144:9 0
*RES
1 *444:zeros[4] *42:7 8.034 
2 *42:7 *42:9 179.284 
3 *42:9 *42:11 4.5 
4 *42:11 *42:13 531.772 
5 *42:13 *42:15 4.5 
6 *42:15 io_oeb[12] 121.03 
*END

*D_NET *43 0.176543
*CONN
*P io_oeb[13] O
*I *444:zeros[5] O *D top_ew_algofoogle
*CAP
1 io_oeb[13] 0.0424043
2 *444:zeros[5] 0.0458674
3 *43:7 0.0424043
4 *43:5 0.0458674
*RES
1 *444:zeros[5] *43:5 314.123 
2 *43:5 *43:7 4.5 
3 *43:7 io_oeb[13] 301.15 
*END

*D_NET *44 0.179532
*CONN
*P io_oeb[14] O
*I *444:zeros[6] O *D top_ew_algofoogle
*CAP
1 io_oeb[14] 0.0189364
2 *444:zeros[6] 0.000799175
3 *44:11 0.0189364
4 *44:9 0.0525542
5 *44:7 0.0533534
6 io_oeb[14] *83:13 0.0349521
*RES
1 *444:zeros[6] *44:7 9.706 
2 *44:7 *44:9 379.772 
3 *44:9 *44:11 4.5 
4 *44:11 io_oeb[14] 214.51 
*END

*D_NET *45 0.174268
*CONN
*P io_oeb[15] O
*I *444:zeros[7] O *D top_ew_algofoogle
*CAP
1 io_oeb[15] 0.00102104
2 *444:zeros[7] 0.0541163
3 *45:9 0.0259261
4 *45:7 0.024905
5 *45:5 0.0541163
6 *45:9 *47:15 0.014183
*RES
1 *444:zeros[7] *45:5 370.515 
2 *45:5 *45:7 4.5 
3 *45:7 *45:9 193.572 
4 *45:9 io_oeb[15] 11.53 
*END

*D_NET *46 0.256584
*CONN
*P io_oeb[16] O
*I *444:o_tex_oeb0 O *D top_ew_algofoogle
*CAP
1 io_oeb[16] 0.0556544
2 *444:o_tex_oeb0 0.000145069
3 *46:15 0.0556544
4 *46:13 0.0448276
5 *46:11 0.0448276
6 *46:9 0.00736609
7 *46:7 0.00751115
8 *46:7 *444:i_gpout4_sel[5] 1.03877e-05
9 *46:9 *444:i_test_uc2 0
10 *46:9 *85:9 0.0400817
11 *46:9 *144:13 0.000408168
12 *46:9 *307:13 9.74134e-05
*RES
1 *444:o_tex_oeb0 *46:7 5.146 
2 *46:7 *46:9 99.636 
3 *46:9 *46:11 4.5 
4 *46:11 *46:13 318.668 
5 *46:13 *46:15 4.5 
6 *46:15 io_oeb[16] 380.95 
*END

*D_NET *47 0.13145
*CONN
*P io_oeb[17] O
*I *444:zeros[0] O *D top_ew_algofoogle
*CAP
1 io_oeb[17] 0.000999175
2 *444:zeros[0] 5.33612e-05
3 *47:15 0.0034012
4 *47:9 0.0575808
5 *47:7 0.0552321
6 *45:9 *47:15 0.014183
*RES
1 *444:zeros[0] *47:7 4.842 
2 *47:7 *47:9 377.644 
3 *47:9 *47:15 43.124 
4 *47:15 io_oeb[17] 6.878 
*END

*D_NET *48 0.14564
*CONN
*P io_oeb[18] O
*I *444:zeros[1] O *D top_ew_algofoogle
*CAP
1 io_oeb[18] 0.0545733
2 *444:zeros[1] 0.000564139
3 *48:11 0.0545733
4 *48:9 0.00460589
5 *48:7 0.00517003
6 *48:9 *49:9 0.026153
*RES
1 *444:zeros[1] *48:7 8.08693 
2 *48:7 *48:9 63.308 
3 *48:9 *48:11 4.5 
4 *48:11 io_oeb[18] 373.958 
*END

*D_NET *49 0.18099
*CONN
*P io_oeb[19] O
*I *444:zeros[2] O *D top_ew_algofoogle
*CAP
1 io_oeb[19] 0.0546079
2 *444:zeros[2] 0.000529448
3 *49:11 0.0546079
4 *49:9 0.0160788
5 *49:7 0.0166083
6 *49:9 *444:i_mode[2] 0
7 *49:9 *87:13 0.0124045
8 *48:9 *49:9 0.026153
*RES
1 *444:zeros[2] *49:7 7.93493 
2 *49:7 *49:9 160.436 
3 *49:9 *49:11 4.5 
4 *49:11 io_oeb[19] 374.11 
*END

*D_NET *51 0.236253
*CONN
*P io_oeb[20] O
*I *444:zeros[3] O *D top_ew_algofoogle
*CAP
1 io_oeb[20] 0.0946019
2 *444:zeros[3] 0.000580071
3 *51:11 0.0946019
4 *51:9 0.00945122
5 *51:7 0.0100313
6 *51:9 *444:i_la_invalid 0.00216002
7 *51:9 *130:9 0.00724316
8 *51:9 *134:9 0
9 *29:13 *51:9 0.0175836
*RES
1 *444:zeros[3] *51:7 8.186 
2 *51:7 *51:9 112.556 
3 *51:9 *51:11 4.5 
4 *51:11 io_oeb[20] 649.078 
*END

*D_NET *79 0.413625
*CONN
*P io_out[11] O
*I *444:zeros[8] O *D top_ew_algofoogle
*CAP
1 io_out[11] 0.0685557
2 *444:zeros[8] 0.00087671
3 *79:11 0.0685557
4 *79:9 0.0304223
5 *79:7 0.031299
6 *79:9 *80:9 0.0588874
7 *79:9 *82:9 0.134476
8 *79:9 *116:13 0.0043949
9 *79:9 *118:13 0.00435667
10 *79:9 *121:13 0.0045579
11 *79:9 *131:13 0.00690249
12 *8:13 *79:9 0.000340753
*RES
1 *444:zeros[8] *79:7 9.098 
2 *79:7 *79:9 442.092 
3 *79:9 *79:11 4.5 
4 *79:11 io_out[11] 487.198 
*END

*D_NET *80 0.355918
*CONN
*P io_out[12] O
*I *444:o_hsync O *D top_ew_algofoogle
*CAP
1 io_out[12] 0.00122247
2 *444:o_hsync 0.000783058
3 *80:17 0.0170617
4 *80:15 0.0158392
5 *80:13 0.0675947
6 *80:11 0.0675947
7 *80:9 0.0118232
8 *80:7 0.0126063
9 *80:7 *444:i_gpout5_sel[2] 0.000125026
10 *80:7 *444:i_gpout5_sel[4] 0.000123434
11 *80:9 *121:13 0.000942903
12 *80:17 *81:14 0.0938992
13 *8:13 *80:9 0.00741525
14 *79:9 *80:9 0.0588874
*RES
1 *444:o_hsync *80:7 9.25 
2 *80:7 *80:9 142.044 
3 *80:9 *80:11 4.5 
4 *80:11 *80:13 480.548 
5 *80:13 *80:15 4.5 
6 *80:15 *80:17 225.34 
7 *80:17 io_out[12] 11.378 
*END

*D_NET *81 0.339771
*CONN
*P io_out[13] O
*I *444:o_vsync O *D top_ew_algofoogle
*CAP
1 io_out[13] 0.00104681
2 *444:o_vsync 0
3 *81:14 0.0259097
4 *81:12 0.0248629
5 *81:10 0.0668517
6 *81:8 0.0668517
7 *81:6 0.0222599
8 *81:4 0.0222599
9 *81:6 *83:9 0.00388807
10 *81:6 *84:11 0.00282423
11 *81:6 *85:9 0.00270172
12 *81:6 *86:9 0.00369066
13 *81:6 *87:9 0.00259975
14 *81:6 *145:13 0.000124827
15 *80:17 *81:14 0.0938992
*RES
1 *444:o_vsync *81:4 4.5 
2 *81:4 *81:6 133.38 
3 *81:6 *81:8 4.5 
4 *81:8 *81:10 475.684 
5 *81:10 *81:12 4.5 
6 *81:12 *81:14 290.548 
7 *81:14 io_out[13] 11.53 
*END

*D_NET *82 0.3663
*CONN
*P io_out[14] O
*I *444:o_tex_csb O *D top_ew_algofoogle
*CAP
1 io_out[14] 0.0684522
2 *444:o_tex_csb 0.000700394
3 *82:11 0.0684522
4 *82:9 0.0460202
5 *82:7 0.0467206
6 *82:7 *444:i_debug_trace_overlay 8.16381e-05
7 *82:7 *159:11 7.52312e-05
8 *82:9 *118:13 0.00120073
9 *444:i_tex_in[0] *82:7 0.000121124
10 *79:9 *82:9 0.134476
*RES
1 *444:o_tex_csb *82:7 8.946 
2 *82:7 *82:9 484.956 
3 *82:9 *82:11 4.5 
4 *82:11 io_out[14] 487.046 
*END

*D_NET *83 0.333387
*CONN
*P io_out[15] O
*I *444:o_tex_sclk O *D top_ew_algofoogle
*CAP
1 io_out[15] 0.00166949
2 *444:o_tex_sclk 0.00012992
3 *83:13 0.0519663
4 *83:11 0.0502968
5 *83:9 0.0387235
6 *83:7 0.0388534
7 *83:9 *84:11 0.0705881
8 *83:9 *86:9 0.0423193
9 io_oeb[14] *83:13 0.0349521
10 *81:6 *83:9 0.00388807
*RES
1 *444:o_tex_sclk *83:7 5.298 
2 *83:7 *83:9 472.34 
3 *83:9 *83:11 4.5 
4 *83:11 *83:13 437.684 
5 *83:13 io_out[15] 13.81 
*END

*D_NET *84 0.322441
*CONN
*P io_out[16] O
*I *444:o_tex_out0 O *D top_ew_algofoogle
*CAP
1 io_out[16] 0.00239551
2 *444:o_tex_out0 0.000185538
3 *84:15 0.0512618
4 *84:13 0.0488662
5 *84:11 0.0299724
6 *84:9 0.0301579
7 *84:11 *85:9 0.000165165
8 *84:11 *86:9 0.04269
9 *84:11 *87:9 0.0377985
10 *84:11 *145:13 0.00553541
11 *81:6 *84:11 0.00282423
12 *83:9 *84:11 0.0705881
*RES
1 *444:o_tex_out0 *84:9 5.526 
2 *84:9 *84:11 466.412 
3 *84:11 *84:13 4.5 
4 *84:13 *84:15 348.156 
5 *84:15 io_out[16] 20.65 
*END

*D_NET *85 0.345559
*CONN
*P io_out[17] O
*I *444:o_gpout[0] O *D top_ew_algofoogle
*CAP
1 io_out[17] 0.0549397
2 *444:o_gpout[0] 8.64741e-05
3 *85:15 0.0549397
4 *85:13 0.0187308
5 *85:11 0.0187308
6 *85:9 0.000933503
7 *85:7 0.00101998
8 *85:7 *444:i_gpout0_sel[5] 1.39844e-05
9 *85:9 *87:9 0.0368885
10 *85:9 *145:13 0.00911165
11 *85:9 *307:13 0.00139361
12 *85:13 *444:i_mode[2] 0
13 *85:13 *86:13 0.0697561
14 *85:13 *158:9 0.0360651
15 *46:9 *85:9 0.0400817
16 *81:6 *85:9 0.00270172
17 *84:11 *85:9 0.000165165
*RES
1 *444:o_gpout[0] *85:7 4.994 
2 *85:7 *85:9 115.292 
3 *85:9 *85:11 4.5 
4 *85:11 *85:13 258.628 
5 *85:13 *85:15 4.5 
6 *85:15 io_out[17] 376.238 
*END

*D_NET *86 0.296148
*CONN
*P io_out[18] O
*I *444:o_gpout[1] O *D top_ew_algofoogle
*CAP
1 io_out[18] 0.0549744
2 *444:o_gpout[1] 0.000102369
3 *86:15 0.0549744
4 *86:13 0.0120239
5 *86:11 0.0120239
6 *86:9 0.00104695
7 *86:7 0.00114932
8 *86:9 *145:13 0.00139691
9 *81:6 *86:9 0.00369066
10 *83:9 *86:9 0.0423193
11 *84:11 *86:9 0.04269
12 *85:13 *86:13 0.0697561
*RES
1 *444:o_gpout[1] *86:7 5.146 
2 *86:7 *86:9 113.62 
3 *86:9 *86:11 4.5 
4 *86:11 *86:13 168.34 
5 *86:13 *86:15 4.5 
6 *86:15 io_out[18] 376.39 
*END

*D_NET *87 0.217857
*CONN
*P io_out[19] O
*I *444:o_gpout[2] O *D top_ew_algofoogle
*CAP
1 io_out[19] 0.0545733
2 *444:o_gpout[2] 7.60867e-05
3 *87:15 0.0545733
4 *87:13 0.00906898
5 *87:11 0.00906898
6 *87:9 0.00035964
7 *87:7 0.000435727
8 *87:7 *444:i_gpout3_sel[3] 5.00209e-06
9 *87:7 *444:i_gpout4_sel[2] 5.00209e-06
10 *49:9 *87:13 0.0124045
11 *81:6 *87:9 0.00259975
12 *84:11 *87:9 0.0377985
13 *85:9 *87:9 0.0368885
*RES
1 *444:o_gpout[2] *87:7 4.842 
2 *87:7 *87:9 93.86 
3 *87:9 *87:11 4.5 
4 *87:11 *87:13 78.812 
5 *87:13 *87:15 4.5 
6 *87:15 io_out[19] 373.958 
*END

*D_NET *89 0.142035
*CONN
*P io_out[20] O
*I *444:o_gpout[3] O *D top_ew_algofoogle
*CAP
1 io_out[20] 0.0690673
2 *444:o_gpout[3] 0.00189462
3 *89:7 0.0709619
4 *89:7 *444:i_gpout3_sel[4] 8.06357e-05
5 *89:7 *444:i_gpout4_sel[1] 3.09247e-05
*RES
1 *444:o_gpout[3] *89:7 15.938 
2 *89:7 io_out[20] 474.126 
*END

*D_NET *115 0.101382
*CONN
*P la_data_in[0] I
*I *444:i_reset_lock_a I *D top_ew_algofoogle
*CAP
1 la_data_in[0] 0.0449502
2 *444:i_reset_lock_a 0.00540316
3 *115:5 0.0503533
4 *444:i_reset_lock_a *444:i_gpout5_sel[1] 0.000334653
5 *444:i_reset_lock_a *444:i_gpout5_sel[3] 0.000340603
*RES
1 la_data_in[0] *115:5 308.294 
2 *115:5 *444:i_reset_lock_a 41.018 
*END

*D_NET *116 0.178684
*CONN
*P la_data_in[10] I
*I *444:i_gpout0_sel[5] I *D top_ew_algofoogle
*CAP
1 la_data_in[10] 0.0242461
2 *444:i_gpout0_sel[5] 0.000892834
3 *116:13 0.00237193
4 *116:11 0.00147909
5 *116:9 0.00345104
6 *116:7 0.00345104
7 *116:5 0.0242461
8 *444:i_gpout0_sel[5] *444:i_gpout0_sel[3] 3.74664e-05
9 *116:9 *121:9 0.0188383
10 *116:9 *123:9 3.19219e-05
11 *116:9 *160:9 0
12 *116:13 *117:13 0.000244026
13 *116:13 *121:13 0.0615856
14 *116:13 *150:13 0.0257236
15 *8:13 *116:13 0.00767652
16 *79:9 *116:13 0.0043949
17 *85:7 *444:i_gpout0_sel[5] 1.39844e-05
*RES
1 la_data_in[10] *116:5 163.286 
2 *116:5 *116:7 4.5 
3 *116:7 *116:9 45.98 
4 *116:9 *116:11 4.5 
5 *116:11 *116:13 152.38 
6 *116:13 *444:i_gpout0_sel[5] 9.402 
*END

*D_NET *117 0.190699
*CONN
*P la_data_in[11] I
*I *444:i_debug_vec_overlay I *D top_ew_algofoogle
*CAP
1 la_data_in[11] 0.0230563
2 *444:i_debug_vec_overlay 0.00102534
3 *117:13 0.00178298
4 *117:11 0.000757639
5 *117:9 0.00386565
6 *117:7 0.00386565
7 *117:5 0.0230563
8 *444:i_debug_vec_overlay *444:i_gpout5_sel[0] 0.000131942
9 *117:9 *444:i_spare_0 0.000238065
10 *117:9 *129:9 0.0223664
11 *117:13 *121:13 1.44832e-05
12 *117:13 *124:13 0
13 *117:13 *131:13 0.000456738
14 *117:13 *150:13 0.0535528
15 *117:13 *159:5 0.0561182
16 *8:13 *117:13 0.000166035
17 *116:13 *117:13 0.000244026
*RES
1 la_data_in[11] *117:5 156.142 
2 *117:5 *117:7 4.5 
3 *117:7 *117:9 54.188 
4 *117:9 *117:11 4.5 
5 *117:11 *117:13 142.196 
6 *117:13 *444:i_debug_vec_overlay 9.858 
*END

*D_NET *118 0.195295
*CONN
*P la_data_in[12] I
*I *444:i_reg_csb I *D top_ew_algofoogle
*CAP
1 la_data_in[12] 0.00153866
2 *444:i_reg_csb 0.000587535
3 *118:13 0.0362163
4 *118:11 0.0356287
5 *118:9 0.00437842
6 *118:7 0.00591708
7 *444:i_reg_csb *444:i_reg_sclk 0.000154226
8 *444:i_reg_csb *444:i_test_uc2 6.66072e-05
9 *118:9 *124:9 0.0252799
10 *118:13 *131:13 0.0774782
11 *118:13 *143:13 0
12 *118:13 *159:5 0
13 *118:13 *159:13 0.00177515
14 *8:13 *118:13 0.000717116
15 *79:9 *118:13 0.00435667
16 *82:9 *118:13 0.00120073
*RES
1 la_data_in[12] *118:7 14.57 
2 *118:7 *118:9 61.028 
3 *118:9 *118:11 4.5 
4 *118:11 *118:13 343.9 
5 *118:13 *444:i_reg_csb 8.946 
*END

*D_NET *119 0.291166
*CONN
*P la_data_in[13] I
*I *444:i_reg_sclk I *D top_ew_algofoogle
*CAP
1 la_data_in[13] 0.00351264
2 *444:i_reg_sclk 0.00105505
3 *119:13 0.00215242
4 *119:11 0.00109737
5 *119:9 0.0101982
6 *119:7 0.0137108
7 *444:i_reg_sclk *444:i_reg_mosi 0.00014629
8 *119:13 *120:13 0.00598948
9 *119:13 *124:13 0.131707
10 *119:13 *136:13 0.121442
11 *444:i_reg_csb *444:i_reg_sclk 0.000154226
*RES
1 la_data_in[13] *119:7 27.946 
2 *119:7 *119:9 71.212 
3 *119:9 *119:11 4.5 
4 *119:11 *119:13 331.436 
5 *119:13 *444:i_reg_sclk 11.378 
*END

*D_NET *120 0.247348
*CONN
*P la_data_in[14] I
*I *444:i_reg_mosi I *D top_ew_algofoogle
*CAP
1 la_data_in[14] 0.0226551
2 *444:i_reg_mosi 0.00117078
3 *120:13 0.00210327
4 *120:11 0.000932496
5 *120:9 0.00606266
6 *120:7 0.00606266
7 *120:5 0.0226551
8 *444:i_reg_mosi *444:i_gpout1_sel[5] 0.000153664
9 *120:9 *131:9 0.0316174
10 *120:13 *122:13 0.00113994
11 *120:13 *125:13 0.0779356
12 *120:13 *136:13 0.0687233
13 *444:i_reg_sclk *444:i_reg_mosi 0.00014629
14 *119:13 *120:13 0.00598948
*RES
1 la_data_in[14] *120:5 153.71 
2 *120:5 *120:7 4.5 
3 *120:7 *120:9 79.268 
4 *120:9 *120:11 4.5 
5 *120:11 *120:13 202.084 
6 *120:13 *444:i_reg_mosi 11.682 
*END

*D_NET *121 0.256863
*CONN
*P la_data_in[15] I
*I *444:i_gpout1_sel[0] I *D top_ew_algofoogle
*CAP
1 la_data_in[15] 0.0241729
2 *444:i_gpout1_sel[0] 0.000693598
3 *121:13 0.00126227
4 *121:11 0.000568671
5 *121:9 0.00296846
6 *121:7 0.00296846
7 *121:5 0.0241729
8 *444:i_gpout1_sel[0] *444:i_gpout2_sel[3] 0.000148297
9 *444:i_gpout1_sel[0] *444:i_gpout2_sel[5] 8.11971e-05
10 *121:9 *123:9 0.0349
11 *121:13 *131:13 0.0733565
12 *8:13 *121:13 0.00563084