*SPEF "ieee 1481-1999"
*DESIGN "user_project_wrapper"
*DATE "11:11:11 Fri 11 11, 1111"
*VENDOR "OpenRCX"
*PROGRAM "Parallel Extraction"
*VERSION "1.0"
*DESIGN_FLOW "NAME_SCOPE LOCAL" "PIN_CAP NONE"
*DIVIDER /
*DELIMITER :
*BUS_DELIMITER []
*T_UNIT 1 NS
*C_UNIT 1 PF
*R_UNIT 1 OHM
*L_UNIT 1 HENRY

*NAME_MAP
*1 io_in[0]
*2 io_in[10]
*3 io_in[11]
*4 io_in[12]
*5 io_in[13]
*6 io_in[14]
*7 io_in[15]
*8 io_in[16]
*9 io_in[17]
*10 io_in[18]
*11 io_in[19]
*12 io_in[1]
*13 io_in[20]
*14 io_in[21]
*15 io_in[22]
*16 io_in[23]
*17 io_in[24]
*18 io_in[25]
*19 io_in[26]
*20 io_in[27]
*21 io_in[28]
*22 io_in[29]
*23 io_in[2]
*24 io_in[30]
*25 io_in[31]
*26 io_in[32]
*27 io_in[33]
*28 io_in[34]
*29 io_in[35]
*30 io_in[36]
*31 io_in[37]
*32 io_in[3]
*33 io_in[4]
*34 io_in[5]
*35 io_in[6]
*36 io_in[7]
*37 io_in[8]
*38 io_in[9]
*39 io_oeb[0]
*40 io_oeb[10]
*41 io_oeb[11]
*42 io_oeb[12]
*43 io_oeb[13]
*44 io_oeb[14]
*45 io_oeb[15]
*46 anton_io_oeb\[4\]
*47 io_oeb[17]
*48 io_oeb[18]
*49 io_oeb[19]
*50 io_oeb[1]
*51 io_oeb[20]
*52 io_oeb[21]
*53 io_oeb[22]
*54 io_oeb[23]
*55 io_oeb[24]
*56 io_oeb[25]
*57 io_oeb[26]
*58 io_oeb[27]
*59 io_oeb[28]
*60 io_oeb[29]
*61 io_oeb[2]
*62 io_oeb[30]
*63 io_oeb[31]
*64 io_oeb[32]
*65 io_oeb[33]
*66 io_oeb[34]
*67 io_oeb[35]
*68 io_oeb[36]
*69 io_oeb[37]
*70 io_oeb[3]
*71 io_oeb[4]
*72 io_oeb[5]
*73 io_oeb[6]
*74 io_oeb[7]
*75 io_oeb[8]
*76 io_oeb[9]
*77 io_out[0]
*78 io_out[10]
*79 io_out[11]
*80 anton_io_out\[0\]
*81 anton_io_out\[1\]
*82 anton_io_out\[2\]
*83 anton_io_out\[3\]
*84 anton_io_out\[4\]
*85 io_out[17]
*86 io_out[18]
*87 io_out[19]
*88 io_out[1]
*89 io_out[20]
*90 io_out[21]
*91 io_out[22]
*92 io_out[23]
*93 io_out[24]
*94 io_out[25]
*95 io_out[26]
*96 io_out[27]
*97 io_out[28]
*98 io_out[29]
*99 io_out[2]
*100 io_out[30]
*101 io_out[31]
*102 io_out[32]
*103 io_out[33]
*104 io_out[34]
*105 io_out[35]
*106 io_out[36]
*107 io_out[37]
*108 io_out[3]
*109 io_out[4]
*110 io_out[5]
*111 io_out[6]
*112 io_out[7]
*113 io_out[8]
*114 io_out[9]
*115 la_data_in[0]
*116 la_data_in[10]
*117 la_data_in[11]
*118 la_data_in[12]
*119 la_data_in[13]
*120 la_data_in[14]
*121 la_data_in[15]
*122 la_data_in[16]
*123 la_data_in[17]
*124 la_data_in[18]
*125 la_data_in[19]
*126 la_data_in[1]
*127 la_data_in[20]
*128 la_data_in[21]
*129 la_data_in[22]
*130 la_data_in[23]
*131 la_data_in[24]
*132 la_data_in[25]
*133 la_data_in[26]
*134 la_data_in[27]
*135 la_data_in[28]
*136 la_data_in[29]
*137 la_data_in[2]
*138 la_data_in[30]
*139 la_data_in[31]
*140 la_data_in[32]
*141 la_data_in[33]
*142 la_data_in[34]
*143 la_data_in[35]
*144 la_data_in[36]
*145 la_data_in[37]
*146 la_data_in[38]
*147 la_data_in[39]
*148 la_data_in[3]
*149 la_data_in[40]
*150 la_data_in[41]
*151 la_data_in[42]
*152 la_data_in[43]
*153 la_data_in[44]
*154 la_data_in[45]
*155 la_data_in[46]
*156 la_data_in[47]
*157 la_data_in[48]
*158 la_data_in[49]
*159 la_data_in[4]
*160 la_data_in[50]
*161 la_data_in[51]
*162 la_data_in[52]
*163 la_data_in[53]
*164 la_data_in[54]
*165 la_data_in[55]
*166 la_data_in[56]
*167 la_data_in[57]
*168 la_data_in[58]
*169 la_data_in[59]
*170 la_data_in[5]
*171 la_data_in[60]
*172 la_data_in[61]
*173 la_data_in[62]
*174 la_data_in[63]
*175 la_data_in[6]
*176 la_data_in[7]
*177 la_data_in[8]
*178 la_data_in[9]
*179 la_data_out[0]
*180 la_data_out[10]
*181 la_data_out[11]
*182 la_data_out[12]
*183 la_data_out[13]
*184 la_data_out[14]
*185 la_data_out[15]
*186 la_data_out[16]
*187 la_data_out[17]
*188 la_data_out[18]
*189 la_data_out[19]
*190 la_data_out[1]
*191 la_data_out[20]
*192 la_data_out[21]
*193 la_data_out[22]
*194 la_data_out[23]
*195 la_data_out[24]
*196 la_data_out[25]
*197 la_data_out[26]
*198 la_data_out[27]
*199 la_data_out[28]
*200 la_data_out[29]
*201 la_data_out[2]
*202 la_data_out[30]
*203 la_data_out[31]
*204 la_data_out[32]
*205 la_data_out[33]
*206 la_data_out[34]
*207 la_data_out[35]
*208 la_data_out[36]
*209 la_data_out[37]
*210 la_data_out[38]
*211 la_data_out[39]
*212 la_data_out[3]
*213 la_data_out[40]
*214 la_data_out[41]
*215 la_data_out[42]
*216 la_data_out[43]
*217 la_data_out[44]
*218 la_data_out[45]
*219 la_data_out[46]
*220 la_data_out[47]
*221 la_data_out[48]
*222 la_data_out[49]
*223 la_data_out[4]
*224 la_data_out[50]
*225 la_data_out[51]
*226 la_data_out[52]
*227 la_data_out[53]
*228 la_data_out[54]
*229 la_data_out[55]
*230 la_data_out[56]
*231 la_data_out[57]
*232 la_data_out[58]
*233 la_data_out[59]
*234 la_data_out[5]
*235 la_data_out[60]
*236 la_data_out[61]
*237 la_data_out[62]
*238 la_data_out[63]
*239 la_data_out[6]
*240 la_data_out[7]
*241 la_data_out[8]
*242 la_data_out[9]
*243 la_oenb[0]
*244 la_oenb[10]
*245 la_oenb[11]
*246 la_oenb[12]
*247 la_oenb[13]
*248 la_oenb[14]
*249 la_oenb[15]
*250 la_oenb[16]
*251 la_oenb[17]
*252 la_oenb[18]
*253 la_oenb[19]
*254 la_oenb[1]
*255 la_oenb[20]
*256 la_oenb[21]
*257 la_oenb[22]
*258 la_oenb[23]
*259 la_oenb[24]
*260 la_oenb[25]
*261 la_oenb[26]
*262 la_oenb[27]
*263 la_oenb[28]
*264 la_oenb[29]
*265 la_oenb[2]
*266 la_oenb[30]
*267 la_oenb[31]
*268 la_oenb[32]
*269 la_oenb[33]
*270 la_oenb[34]
*271 la_oenb[35]
*272 la_oenb[36]
*273 la_oenb[37]
*274 la_oenb[38]
*275 la_oenb[39]
*276 la_oenb[3]
*277 la_oenb[40]
*278 la_oenb[41]
*279 la_oenb[42]
*280 la_oenb[43]
*281 la_oenb[44]
*282 la_oenb[45]
*283 la_oenb[46]
*284 la_oenb[47]
*285 la_oenb[48]
*286 la_oenb[49]
*287 la_oenb[4]
*288 la_oenb[50]
*289 la_oenb[51]
*290 la_oenb[52]
*291 la_oenb[53]
*292 la_oenb[54]
*293 la_oenb[55]
*294 la_oenb[56]
*295 la_oenb[57]
*296 la_oenb[58]
*297 la_oenb[59]
*298 la_oenb[5]
*299 la_oenb[60]
*300 la_oenb[61]
*301 la_oenb[62]
*302 la_oenb[63]
*303 la_oenb[6]
*304 la_oenb[7]
*305 la_oenb[8]
*306 la_oenb[9]
*307 user_clock2
*308 user_irq[0]
*309 user_irq[1]
*310 user_irq[2]
*313 wb_clk_i
*314 wb_rst_i
*315 wbs_ack_o
*316 wbs_adr_i[0]
*317 wbs_adr_i[10]
*318 wbs_adr_i[11]
*319 wbs_adr_i[12]
*320 wbs_adr_i[13]
*321 wbs_adr_i[14]
*322 wbs_adr_i[15]
*323 wbs_adr_i[16]
*324 wbs_adr_i[17]
*325 wbs_adr_i[18]
*326 wbs_adr_i[19]
*327 wbs_adr_i[1]
*328 wbs_adr_i[20]
*329 wbs_adr_i[21]
*330 wbs_adr_i[22]
*331 wbs_adr_i[23]
*332 wbs_adr_i[24]
*333 wbs_adr_i[25]
*334 wbs_adr_i[26]
*335 wbs_adr_i[27]
*336 wbs_adr_i[28]
*337 wbs_adr_i[29]
*338 wbs_adr_i[2]
*339 wbs_adr_i[30]
*340 wbs_adr_i[31]
*341 wbs_adr_i[3]
*342 wbs_adr_i[4]
*343 wbs_adr_i[5]
*344 wbs_adr_i[6]
*345 wbs_adr_i[7]
*346 wbs_adr_i[8]
*347 wbs_adr_i[9]
*348 wbs_cyc_i
*349 wbs_dat_i[0]
*350 wbs_dat_i[10]
*351 wbs_dat_i[11]
*352 wbs_dat_i[12]
*353 wbs_dat_i[13]
*354 wbs_dat_i[14]
*355 wbs_dat_i[15]
*356 wbs_dat_i[16]
*357 wbs_dat_i[17]
*358 wbs_dat_i[18]
*359 wbs_dat_i[19]
*360 wbs_dat_i[1]
*361 wbs_dat_i[20]
*362 wbs_dat_i[21]
*363 wbs_dat_i[22]
*364 wbs_dat_i[23]
*365 wbs_dat_i[24]
*366 wbs_dat_i[25]
*367 wbs_dat_i[26]
*368 wbs_dat_i[27]
*369 wbs_dat_i[28]
*370 wbs_dat_i[29]
*371 wbs_dat_i[2]
*372 wbs_dat_i[30]
*373 wbs_dat_i[31]
*374 wbs_dat_i[3]
*375 wbs_dat_i[4]
*376 wbs_dat_i[5]
*377 wbs_dat_i[6]
*378 wbs_dat_i[7]
*379 wbs_dat_i[8]
*380 wbs_dat_i[9]
*381 wbs_dat_o[0]
*382 wbs_dat_o[10]
*383 wbs_dat_o[11]
*384 wbs_dat_o[12]
*385 wbs_dat_o[13]
*386 wbs_dat_o[14]
*387 wbs_dat_o[15]
*388 wbs_dat_o[16]
*389 wbs_dat_o[17]
*390 wbs_dat_o[18]
*391 wbs_dat_o[19]
*392 wbs_dat_o[1]
*393 wbs_dat_o[20]
*394 wbs_dat_o[21]
*395 wbs_dat_o[22]
*396 wbs_dat_o[23]
*397 wbs_dat_o[24]
*398 wbs_dat_o[25]
*399 wbs_dat_o[26]
*400 wbs_dat_o[27]
*401 wbs_dat_o[28]
*402 wbs_dat_o[29]
*403 wbs_dat_o[2]
*404 wbs_dat_o[30]
*405 wbs_dat_o[31]
*406 wbs_dat_o[3]
*407 wbs_dat_o[4]
*408 wbs_dat_o[5]
*409 wbs_dat_o[6]
*410 wbs_dat_o[7]
*411 wbs_dat_o[8]
*412 wbs_dat_o[9]
*413 wbs_sel_i[0]
*414 wbs_sel_i[1]
*415 wbs_sel_i[2]
*416 wbs_sel_i[3]
*417 wbs_stb_i
*418 wbs_we_i
*419 a0s\[10\]
*420 a0s\[11\]
*421 a0s\[12\]
*422 a0s\[13\]
*423 a0s\[14\]
*424 a0s\[15\]
*425 a0s\[9\]
*426 a1s\[10\]
*427 a1s\[11\]
*428 a1s\[12\]
*429 a1s\[13\]
*430 a1s\[14\]
*431 a1s\[15\]
*432 a1s\[1\]
*433 a1s\[2\]
*434 a1s\[3\]
*435 a1s\[4\]
*436 a1s\[5\]
*437 a1s\[6\]
*438 a1s\[7\]
*439 a1s\[8\]
*440 a1s\[9\]
*441 anton_gpout\[4\]
*442 anton_gpout\[5\]
*443 anton_o_reset
*444 top_ew_algofoogle

*PORTS
io_in[0] I
io_in[10] I
io_in[11] I
io_in[12] I
io_in[13] I
io_in[14] I
io_in[15] I
io_in[16] I
io_in[17] I
io_in[18] I
io_in[19] I
io_in[1] I
io_in[20] I
io_in[21] I
io_in[22] I
io_in[23] I
io_in[24] I
io_in[25] I
io_in[26] I
io_in[27] I
io_in[28] I
io_in[29] I
io_in[2] I
io_in[30] I
io_in[31] I
io_in[32] I
io_in[33] I
io_in[34] I
io_in[35] I
io_in[36] I
io_in[37] I
io_in[3] I
io_in[4] I
io_in[5] I
io_in[6] I
io_in[7] I
io_in[8] I
io_in[9] I
io_oeb[0] O
io_oeb[10] O
io_oeb[11] O
io_oeb[12] O
io_oeb[13] O
io_oeb[14] O
io_oeb[15] O
io_oeb[16] O
io_oeb[17] O
io_oeb[18] O
io_oeb[19] O
io_oeb[1] O
io_oeb[20] O
io_oeb[21] O
io_oeb[22] O
io_oeb[23] O
io_oeb[24] O
io_oeb[25] O
io_oeb[26] O
io_oeb[27] O
io_oeb[28] O
io_oeb[29] O
io_oeb[2] O
io_oeb[30] O
io_oeb[31] O
io_oeb[32] O
io_oeb[33] O
io_oeb[34] O
io_oeb[35] O
io_oeb[36] O
io_oeb[37] O
io_oeb[3] O
io_oeb[4] O
io_oeb[5] O
io_oeb[6] O
io_oeb[7] O
io_oeb[8] O
io_oeb[9] O
io_out[0] O
io_out[10] O
io_out[11] O
io_out[12] O
io_out[13] O
io_out[14] O
io_out[15] O
io_out[16] O
io_out[17] O
io_out[18] O
io_out[19] O
io_out[1] O
io_out[20] O
io_out[21] O
io_out[22] O
io_out[23] O
io_out[24] O
io_out[25] O
io_out[26] O
io_out[27] O
io_out[28] O
io_out[29] O
io_out[2] O
io_out[30] O
io_out[31] O
io_out[32] O
io_out[33] O
io_out[34] O
io_out[35] O
io_out[36] O
io_out[37] O
io_out[3] O
io_out[4] O
io_out[5] O
io_out[6] O
io_out[7] O
io_out[8] O
io_out[9] O
la_data_in[0] I
la_data_in[10] I
la_data_in[11] I
la_data_in[12] I
la_data_in[13] I
la_data_in[14] I
la_data_in[15] I
la_data_in[16] I
la_data_in[17] I
la_data_in[18] I
la_data_in[19] I
la_data_in[1] I
la_data_in[20] I
la_data_in[21] I
la_data_in[22] I
la_data_in[23] I
la_data_in[24] I
la_data_in[25] I
la_data_in[26] I
la_data_in[27] I
la_data_in[28] I
la_data_in[29] I
la_data_in[2] I
la_data_in[30] I
la_data_in[31] I
la_data_in[32] I
la_data_in[33] I
la_data_in[34] I
la_data_in[35] I
la_data_in[36] I
la_data_in[37] I
la_data_in[38] I
la_data_in[39] I
la_data_in[3] I
la_data_in[40] I
la_data_in[41] I
la_data_in[42] I
la_data_in[43] I
la_data_in[44] I
la_data_in[45] I
la_data_in[46] I
la_data_in[47] I
la_data_in[48] I
la_data_in[49] I
la_data_in[4] I
la_data_in[50] I
la_data_in[51] I
la_data_in[52] I
la_data_in[53] I
la_data_in[54] I
la_data_in[55] I
la_data_in[56] I
la_data_in[57] I
la_data_in[58] I
la_data_in[59] I
la_data_in[5] I
la_data_in[60] I
la_data_in[61] I
la_data_in[62] I
la_data_in[63] I
la_data_in[6] I
la_data_in[7] I
la_data_in[8] I
la_data_in[9] I
la_data_out[0] O
la_data_out[10] O
la_data_out[11] O
la_data_out[12] O
la_data_out[13] O
la_data_out[14] O
la_data_out[15] O
la_data_out[16] O
la_data_out[17] O
la_data_out[18] O
la_data_out[19] O
la_data_out[1] O
la_data_out[20] O
la_data_out[21] O
la_data_out[22] O
la_data_out[23] O
la_data_out[24] O
la_data_out[25] O
la_data_out[26] O
la_data_out[27] O
la_data_out[28] O
la_data_out[29] O
la_data_out[2] O
la_data_out[30] O
la_data_out[31] O
la_data_out[32] O
la_data_out[33] O
la_data_out[34] O
la_data_out[35] O
la_data_out[36] O
la_data_out[37] O
la_data_out[38] O
la_data_out[39] O
la_data_out[3] O
la_data_out[40] O
la_data_out[41] O
la_data_out[42] O
la_data_out[43] O
la_data_out[44] O
la_data_out[45] O
la_data_out[46] O
la_data_out[47] O
la_data_out[48] O
la_data_out[49] O
la_data_out[4] O
la_data_out[50] O
la_data_out[51] O
la_data_out[52] O
la_data_out[53] O
la_data_out[54] O
la_data_out[55] O
la_data_out[56] O
la_data_out[57] O
la_data_out[58] O
la_data_out[59] O
la_data_out[5] O
la_data_out[60] O
la_data_out[61] O
la_data_out[62] O
la_data_out[63] O
la_data_out[6] O
la_data_out[7] O
la_data_out[8] O
la_data_out[9] O
la_oenb[0] I
la_oenb[10] I
la_oenb[11] I
la_oenb[12] I
la_oenb[13] I
la_oenb[14] I
la_oenb[15] I
la_oenb[16] I
la_oenb[17] I
la_oenb[18] I
la_oenb[19] I
la_oenb[1] I
la_oenb[20] I
la_oenb[21] I
la_oenb[22] I
la_oenb[23] I
la_oenb[24] I
la_oenb[25] I
la_oenb[26] I
la_oenb[27] I
la_oenb[28] I
la_oenb[29] I
la_oenb[2] I
la_oenb[30] I
la_oenb[31] I
la_oenb[32] I
la_oenb[33] I
la_oenb[34] I
la_oenb[35] I
la_oenb[36] I
la_oenb[37] I
la_oenb[38] I
la_oenb[39] I
la_oenb[3] I
la_oenb[40] I
la_oenb[41] I
la_oenb[42] I
la_oenb[43] I
la_oenb[44] I
la_oenb[45] I
la_oenb[46] I
la_oenb[47] I
la_oenb[48] I
la_oenb[49] I
la_oenb[4] I
la_oenb[50] I
la_oenb[51] I
la_oenb[52] I
la_oenb[53] I
la_oenb[54] I
la_oenb[55] I
la_oenb[56] I
la_oenb[57] I
la_oenb[58] I
la_oenb[59] I
la_oenb[5] I
la_oenb[60] I
la_oenb[61] I
la_oenb[62] I
la_oenb[63] I
la_oenb[6] I
la_oenb[7] I
la_oenb[8] I
la_oenb[9] I
user_clock2 I
user_irq[0] O
user_irq[1] O
user_irq[2] O
wb_clk_i I
wb_rst_i I
wbs_ack_o O
wbs_adr_i[0] I
wbs_adr_i[10] I
wbs_adr_i[11] I
wbs_adr_i[12] I
wbs_adr_i[13] I
wbs_adr_i[14] I
wbs_adr_i[15] I
wbs_adr_i[16] I
wbs_adr_i[17] I
wbs_adr_i[18] I
wbs_adr_i[19] I
wbs_adr_i[1] I
wbs_adr_i[20] I
wbs_adr_i[21] I
wbs_adr_i[22] I
wbs_adr_i[23] I
wbs_adr_i[24] I
wbs_adr_i[25] I
wbs_adr_i[26] I
wbs_adr_i[27] I
wbs_adr_i[28] I
wbs_adr_i[29] I
wbs_adr_i[2] I
wbs_adr_i[30] I
wbs_adr_i[31] I
wbs_adr_i[3] I
wbs_adr_i[4] I
wbs_adr_i[5] I
wbs_adr_i[6] I
wbs_adr_i[7] I
wbs_adr_i[8] I
wbs_adr_i[9] I
wbs_cyc_i I
wbs_dat_i[0] I
wbs_dat_i[10] I
wbs_dat_i[11] I
wbs_dat_i[12] I
wbs_dat_i[13] I
wbs_dat_i[14] I
wbs_dat_i[15] I
wbs_dat_i[16] I
wbs_dat_i[17] I
wbs_dat_i[18] I
wbs_dat_i[19] I
wbs_dat_i[1] I
wbs_dat_i[20] I
wbs_dat_i[21] I
wbs_dat_i[22] I
wbs_dat_i[23] I
wbs_dat_i[24] I
wbs_dat_i[25] I
wbs_dat_i[26] I
wbs_dat_i[27] I
wbs_dat_i[28] I
wbs_dat_i[29] I
wbs_dat_i[2] I
wbs_dat_i[30] I
wbs_dat_i[31] I
wbs_dat_i[3] I
wbs_dat_i[4] I
wbs_dat_i[5] I
wbs_dat_i[6] I
wbs_dat_i[7] I
wbs_dat_i[8] I
wbs_dat_i[9] I
wbs_dat_o[0] O
wbs_dat_o[10] O
wbs_dat_o[11] O
wbs_dat_o[12] O
wbs_dat_o[13] O
wbs_dat_o[14] O
wbs_dat_o[15] O
wbs_dat_o[16] O
wbs_dat_o[17] O
wbs_dat_o[18] O
wbs_dat_o[19] O
wbs_dat_o[1] O
wbs_dat_o[20] O
wbs_dat_o[21] O
wbs_dat_o[22] O
wbs_dat_o[23] O
wbs_dat_o[24] O
wbs_dat_o[25] O
wbs_dat_o[26] O
wbs_dat_o[27] O
wbs_dat_o[28] O
wbs_dat_o[29] O
wbs_dat_o[2] O
wbs_dat_o[30] O
wbs_dat_o[31] O
wbs_dat_o[3] O
wbs_dat_o[4] O
wbs_dat_o[5] O
wbs_dat_o[6] O
wbs_dat_o[7] O
wbs_dat_o[8] O
wbs_dat_o[9] O
wbs_sel_i[0] I
wbs_sel_i[1] I
wbs_sel_i[2] I
wbs_sel_i[3] I
wbs_stb_i I
wbs_we_i I

*D_NET *3 0.210565
*CONN
*P io_in[11] I
*I *444:i_clk I *D top_ew_algofoogle
*CAP
1 io_in[11] 0.00206254
2 *444:i_clk 0.00445716
3 *3:13 0.0782758
4 *3:11 0.0738186
5 *3:9 0.024944
6 *3:7 0.0270065
*RES
1 io_in[11] *3:7 20.36 
2 *3:7 *3:9 222.664 
3 *3:9 *3:11 4.5 
4 *3:11 *3:13 647.608 
5 *3:13 *444:i_clk 47.844 
*END

*D_NET *8 0.309254
*CONN
*P io_in[16] I
*I *444:i_tex_in[0] I *D top_ew_algofoogle
*CAP
1 io_in[16] 0.0596139
2 *444:i_tex_in[0] 0.00108622
3 *8:13 0.0210038
4 *8:11 0.0199176
5 *8:9 0.0598959
6 *8:7 0.0598959
7 *8:5 0.0596139
8 *444:i_tex_in[0] *444:i_gpout5_sel[0] 0.00012853
9 *444:i_tex_in[0] *82:7 0.000122005
10 *8:13 *79:9 0.00040992
11 *8:13 *80:9 0.00940604
12 *8:13 *116:13 0.0101323
13 *8:13 *117:13 0.000188113
14 *8:13 *118:13 0.000773382
15 *8:13 *121:13 0.00641147
16 *8:13 *131:13 0.000134792
17 *8:13 *150:13 0.000520494
*RES
1 io_in[16] *8:5 502.58 
2 *8:5 *8:7 4.5 
3 *8:7 *8:9 524.056 
4 *8:9 *8:11 4.5 
5 *8:11 *8:13 197.496 
6 *8:13 *444:i_tex_in[0] 11.416 
*END

*D_NET *25 0.130275
*CONN
*P io_in[31] I
*I *444:i_tex_in[1] I *D top_ew_algofoogle
*CAP
1 io_in[31] 0.000813015
2 *444:i_tex_in[1] 0.050681
3 *25:11 0.050681
4 *25:9 0.0115421
5 *25:7 0.0123552
6 *444:i_tex_in[1] *444:i_gpout0_sel[2] 1.13945e-05
7 *444:i_tex_in[1] *444:i_gpout0_sel[3] 3.77155e-05
8 *25:9 *26:11 0.000580922
9 *25:9 *28:9 0.00357212
*RES
1 io_in[31] *25:7 11.832 
2 *25:7 *25:9 110.136 
3 *25:9 *25:11 4.5 
4 *25:11 *444:i_tex_in[1] 437.892 
*END

*D_NET *26 0.107704
*CONN
*P io_in[32] I
*I *444:i_tex_in[2] I *D top_ew_algofoogle
*CAP
1 io_in[32] 0.00289771
2 *444:i_tex_in[2] 0.0442652
3 *26:11 0.0471629
4 *444:i_tex_in[2] *444:i_gpout1_sel[3] 0.000232997
5 *444:i_tex_in[2] *444:i_test_wci 0.0125647
6 *25:9 *26:11 0.000580922
*RES
1 io_in[32] *26:11 35.988 
2 *26:11 *444:i_tex_in[2] 436.644 
*END

*D_NET *28 0.135657
*CONN
*P io_in[34] I
*I *444:i_tex_in[3] I *D top_ew_algofoogle
*CAP
1 io_in[34] 0.000790409
2 *444:i_tex_in[3] 0.0501852
3 *28:11 0.0501852
4 *28:9 0.014524
5 *28:7 0.0153144
6 *444:i_tex_in[3] *444:i_vec_csb 0.000665902
7 *444:i_tex_in[3] *444:i_vec_sclk 0.000420283
8 *25:9 *28:9 0.00357212
*RES
1 io_in[34] *28:7 11.624 
2 *28:7 *28:9 134.264 
3 *28:9 *28:11 4.5 
4 *28:11 *444:i_tex_in[3] 438.1 
*END

*D_NET *29 0.122879
*CONN
*P io_in[35] I
*I *444:i_spare_1 I *D top_ew_algofoogle
*CAP
1 io_in[35] 0.00171273
2 *444:i_spare_1 0.000605046
3 *29:13 0.0481071
4 *29:11 0.0492148
5 *444:i_spare_1 *444:i_spare_0 0.000104002
6 *29:13 *51:9 0.0231352
7 *29:13 *134:9 0
*RES
1 io_in[35] *29:11 23.508 
2 *29:11 *29:13 440.648 
3 *29:13 *444:i_spare_1 9.336 
*END

*D_NET *41 0.210153
*CONN
*P io_oeb[11] O
*I *444:ones[0] O *D top_ew_algofoogle
*CAP
1 io_oeb[11] 0.0715145
2 *444:ones[0] 0.0335619
3 *41:7 0.0715145
4 *41:5 0.0335619
*RES
1 *444:ones[0] *41:5 282.588 
2 *41:5 *41:7 4.5 
3 *41:7 io_oeb[11] 626.756 
*END

*D_NET *42 0.267996
*CONN
*P io_oeb[12] O
*I *444:zeros[4] O *D top_ew_algofoogle
*CAP
1 io_oeb[12] 0.0188988
2 *444:zeros[4] 0.000751119
3 *42:15 0.0188988
4 *42:13 0.0861962
5 *42:11 0.0861962
6 *42:9 0.0281521
7 *42:7 0.0289032
8 *42:9 *144:9 0
*RES
1 *444:zeros[4] *42:7 9.336 
2 *42:7 *42:9 245.336 
3 *42:9 *42:11 4.5 
4 *42:11 *42:13 727.688 
5 *42:13 *42:15 4.5 
6 *42:15 io_oeb[12] 165.62 
*END

*D_NET *43 0.196375
*CONN
*P io_oeb[13] O
*I *444:zeros[5] O *D top_ew_algofoogle
*CAP
1 io_oeb[13] 0.0471725
2 *444:zeros[5] 0.051015
3 *43:7 0.0471725
4 *43:5 0.051015
*RES
1 *444:zeros[5] *43:5 429.852 
2 *43:5 *43:7 4.5 
3 *43:7 io_oeb[13] 412.1 
*END

*D_NET *44 0.20129
*CONN
*P io_oeb[14] O
*I *444:zeros[6] O *D top_ew_algofoogle
*CAP
1 io_oeb[14] 0.0215048
2 *444:zeros[6] 0.000919485
3 *44:11 0.0215048
4 *44:9 0.0582909
5 *44:7 0.0592104
6 io_oeb[14] *83:13 0.0398596
*RES
1 *444:zeros[6] *44:7 11.624 
2 *44:7 *44:9 519.688 
3 *44:9 *44:11 4.5 
4 *44:11 io_oeb[14] 293.54 
*END

*D_NET *45 0.196769
*CONN
*P io_oeb[15] O
*I *444:zeros[7] O *D top_ew_algofoogle
*CAP
1 io_oeb[15] 0.00113656
2 *444:zeros[7] 0.0601926
3 *45:9 0.0288662
4 *45:7 0.0277296
5 *45:5 0.0601926
6 *45:9 *47:13 0.018651
*RES
1 *444:zeros[7] *45:5 507.02 
2 *45:5 *45:7 4.5 
3 *45:7 *45:9 264.888 
4 *45:9 io_oeb[15] 14.12 
*END

*D_NET *46 0.294078
*CONN
*P io_oeb[16] O
*I *444:o_tex_oeb0 O *D top_ew_algofoogle
*CAP
1 io_oeb[16] 0.0619083
2 *444:o_tex_oeb0 0.00018995
3 *46:15 0.0619083
4 *46:13 0.0498499
5 *46:11 0.0498499
6 *46:9 0.00836615
7 *46:7 0.0085561
8 *46:7 *444:i_gpout4_sel[5] 8.89608e-06
9 *46:9 *85:9 0.0528937
10 *46:9 *144:13 0.000436809
11 *46:9 *307:13 0.000110334
12 *46:9 *307:23 0
*RES
1 *444:o_tex_oeb0 *46:7 5.384 
2 *46:7 *46:9 136.344 
3 *46:9 *46:11 4.5 
4 *46:11 *46:13 436.072 
5 *46:13 *46:15 4.5 
6 *46:15 io_oeb[16] 521.3 
*END

*D_NET *47 0.149104
*CONN
*P io_oeb[17] O
*I *444:zeros[0] O *D top_ew_algofoogle
*CAP
1 io_oeb[17] 0.00111232
2 *444:zeros[0] 6.03875e-05
3 *47:13 0.00378514
4 *47:11 0.00267283
5 *47:9 0.0613811
6 *47:7 0.0614415
7 *45:9 *47:13 0.018651
*RES
1 *444:zeros[0] *47:7 4.968 
2 *47:7 *47:9 516.776 
3 *47:9 *47:11 4.5 
4 *47:11 *47:13 46.696 
5 *47:13 io_oeb[17] 13.912 
*END

*D_NET *48 0.167455
*CONN
*P io_oeb[18] O
*I *444:zeros[1] O *D top_ew_algofoogle
*CAP
1 io_oeb[18] 0.0606807
2 *444:zeros[1] 0.000648568
3 *48:11 0.0606807
4 *48:9 0.00519917
5 *48:7 0.00584774
6 *48:9 *49:9 0.0343986
*RES
1 *444:zeros[1] *48:7 9.40843 
2 *48:7 *48:9 86.632 
3 *48:9 *48:11 4.5 
4 *48:11 io_oeb[18] 511.732 
*END

*D_NET *49 0.20922
*CONN
*P io_oeb[19] O
*I *444:zeros[2] O *D top_ew_algofoogle
*CAP
1 io_oeb[19] 0.0607253
2 *444:zeros[2] 0.000603931
3 *49:11 0.0607253
4 *49:9 0.017924
5 *49:7 0.0185279
6 *49:9 *444:i_mode[2] 0
7 *49:9 *87:13 0.0163154
8 *48:9 *49:9 0.0343986
*RES
1 *444:zeros[2] *49:7 9.20043 
2 *49:7 *49:9 219.544 
3 *49:9 *49:11 4.5 
4 *49:11 io_oeb[19] 511.94 
*END

*D_NET *51 0.266787
*CONN
*P io_oeb[20] O
*I *444:zeros[3] O *D top_ew_algofoogle
*CAP
1 io_oeb[20] 0.105125
2 *444:zeros[3] 0.000660862
3 *51:11 0.105125
4 *51:9 0.010913
5 *51:7 0.0115739
6 *51:9 *444:i_la_invalid 0.00235612
7 *51:9 *130:9 0.00789843
8 *51:9 *134:9 0
9 *29:13 *51:9 0.0231352
*RES
1 *444:zeros[3] *51:7 9.544 
2 *51:7 *51:9 154.024 
3 *51:9 *51:11 4.5 
4 *51:11 io_oeb[20] 888.212 
*END

*D_NET *79 0.50298
*CONN
*P io_out[11] O
*I *444:zeros[8] O *D top_ew_algofoogle
*CAP
1 io_out[11] 0.0762425
2 *444:zeros[8] 0.00107817
3 *79:11 0.0762425
4 *79:9 0.0341901
5 *79:7 0.0352683
6 *79:9 *80:9 0.0774484
7 *79:9 *82:9 0.176856
8 *79:9 *116:13 0.00543362
9 *79:9 *118:13 0.00558144
10 *79:9 *121:13 0.00583924
11 *79:9 *131:13 0.00838912
12 *8:13 *79:9 0.00040992
*RES
1 *444:zeros[8] *79:7 10.792 
2 *79:7 *79:9 604.968 
3 *79:9 *79:11 4.5 
4 *79:11 io_out[11] 666.692 
*END

*D_NET *80 0.42911
*CONN
*P io_out[12] O
*I *444:o_hsync O *D top_ew_algofoogle
*CAP
1 io_out[12] 0.00143005
2 *444:o_hsync 0.000992312
3 *80:17 0.0191155
4 *80:15 0.0176855
5 *80:13 0.0751621
6 *80:11 0.0751621
7 *80:9 0.0134157
8 *80:7 0.014408
9 *80:7 *444:i_gpout5_sel[2] 0.000125457
10 *80:7 *444:i_gpout5_sel[4] 0.000123675
11 *80:9 *121:13 0.00114598
12 *80:17 *81:14 0.123489
13 *8:13 *80:9 0.00940604
14 *79:9 *80:9 0.0774484
*RES
1 *444:o_hsync *80:7 11 
2 *80:7 *80:9 194.376 
3 *80:9 *80:11 4.5 
4 *80:11 *80:13 657.592 
5 *80:13 *80:15 4.5 
6 *80:15 *80:17 308.36 
7 *80:17 io_out[12] 13.912 
*END

*D_NET *81 0.400437
*CONN
*P io_out[13] O
*I *444:o_vsync O *D top_ew_algofoogle
*CAP
1 io_out[13] 0.00119074
2 *444:o_vsync 0
3 *81:14 0.0288843
4 *81:12 0.0276936
5 *81:10 0.0743093
6 *81:8 0.0743093
7 *81:6 0.0252238
8 *81:4 0.0252238
9 *81:6 *83:9 0.00508206
10 *81:6 *84:9 0.000207446
11 *81:6 *84:11 0.00371914
12 *81:6 *85:9 0.00325013
13 *81:6 *86:9 0.00448553
14 *81:6 *87:9 0.00321419
15 *81:6 *145:13 0.00015433
16 *80:17 *81:14 0.123489
*RES
1 *444:o_vsync *81:4 4.5 
2 *81:4 *81:6 182.52 
3 *81:6 *81:8 4.5 
4 *81:8 *81:10 650.936 
5 *81:10 *81:12 4.5 
6 *81:12 *81:14 397.592 
7 *81:14 io_out[13] 14.12 
*END

*D_NET *82 0.435392
*CONN
*P io_out[14] O
*I *444:o_tex_csb O *D top_ew_algofoogle
*CAP
1 io_out[14] 0.0760904
2 *444:o_tex_csb 0.000883985
3 *82:11 0.0760904
4 *82:9 0.0513721
5 *82:7 0.0522561
6 *82:7 *444:i_debug_trace_overlay 8.06251e-05
7 *82:7 *159:11 7.96733e-05
8 *82:9 *118:13 0.00156005
9 *444:i_tex_in[0] *82:7 0.000122005
10 *79:9 *82:9 0.176856
*RES
1 *444:o_tex_csb *82:7 10.584 
2 *82:7 *82:9 663.624 
3 *82:9 *82:11 4.5 
4 *82:11 io_out[14] 666.484 
*END

*D_NET *83 0.386039
*CONN
*P io_out[15] O
*I *444:o_tex_sclk O *D top_ew_algofoogle
*CAP
1 io_out[15] 0.00194567
2 *444:o_tex_sclk 0.000144769
3 *83:13 0.0583076
4 *83:11 0.056362
5 *83:9 0.0439251
6 *83:7 0.0440699
7 *83:9 *84:11 0.0804941
8 *83:9 *86:9 0.0558482
9 io_oeb[14] *83:13 0.0398596
10 *81:6 *83:9 0.00508206
*RES
1 *444:o_tex_sclk *83:7 5.592 
2 *83:7 *83:9 646.36 
3 *83:9 *83:11 4.5 
4 *83:11 *83:13 598.936 
5 *83:13 io_out[15] 17.24 
*END

*D_NET *84 0.381055
*CONN
*P io_out[16] O
*I *444:o_tex_out0 O *D top_ew_algofoogle
*CAP
1 io_out[16] 0.00268328
2 *444:o_tex_out0 0.000218447
3 *84:15 0.0569714
4 *84:13 0.0542881
5 *84:11 0.0342709
6 *84:9 0.0344894
7 *84:11 *85:9 0.000188458
8 *84:11 *86:9 0.0563372
9 *84:11 *87:9 0.0498803
10 *84:11 *145:13 0.00730639
11 *81:6 *84:9 0.000207446
12 *81:6 *84:11 0.00371914
13 *83:9 *84:11 0.0804941
*RES
1 *444:o_tex_out0 *84:9 5.904 
2 *84:9 *84:11 638.248 
3 *84:11 *84:13 4.5 
4 *84:13 *84:15 476.424 
5 *84:15 io_out[16] 26.6 
*END

*D_NET *85 0.424672
*CONN
*P io_out[17] O
*I *444:o_gpout[0] O *D top_ew_algofoogle
*CAP
1 io_out[17] 0.0611055
2 *444:o_gpout[0] 0.000107276
3 *85:15 0.0611055
4 *85:13 0.0209872
5 *85:11 0.0209872
6 *85:9 0.00126361
7 *85:7 0.00137088
8 *85:7 *444:i_gpout0_sel[5] 1.44169e-05
9 *85:9 *87:9 0.0486794
10 *85:9 *145:13 0.0120268
11 *85:9 *307:13 0.00152005
12 *85:13 *444:i_mode[2] 0
13 *85:13 *86:13 0.0917409
14 *85:13 *158:9 0.0474309
15 *46:9 *85:9 0.0528937
16 *81:6 *85:9 0.00325013
17 *84:11 *85:9 0.000188458
*RES
1 *444:o_gpout[0] *85:7 5.176 
2 *85:7 *85:9 157.768 
3 *85:9 *85:11 4.5 
4 *85:11 *85:13 353.912 
5 *85:13 *85:15 4.5 
6 *85:15 io_out[17] 514.852 
*END

*D_NET *86 0.362245
*CONN
*P io_out[18] O
*I *444:o_gpout[1] O *D top_ew_algofoogle
*CAP
1 io_out[18] 0.0611501
2 *444:o_gpout[1] 0.00011334
3 *86:15 0.0611501
4 *86:13 0.0134662
5 *86:11 0.0134662
6 *86:9 0.00139389
7 *86:7 0.00150723
8 *86:9 *145:13 0.00158633
9 *81:6 *86:9 0.00448553
10 *83:9 *86:9 0.0558482
11 *84:11 *86:9 0.0563372
12 *85:13 *86:13 0.0917409
*RES
1 *444:o_gpout[1] *86:7 5.384 
2 *86:7 *86:9 155.48 
3 *86:9 *86:11 4.5 
4 *86:11 *86:13 230.36 
5 *86:13 *86:15 4.5 
6 *86:15 io_out[18] 515.06 
*END

*D_NET *87 0.260986
*CONN
*P io_out[19] O
*I *444:o_gpout[2] O *D top_ew_algofoogle
*CAP
1 io_out[19] 0.0606807
2 *444:o_gpout[2] 0.000101631
3 *87:15 0.0606807
4 *87:13 0.0101303
5 *87:11 0.0101303
6 *87:9 0.00053187
7 *87:7 0.0006335
8 *87:7 *444:i_gpout3_sel[3] 4.15342e-06
9 *87:7 *444:i_gpout4_sel[2] 4.15342e-06
10 *49:9 *87:13 0.0163154
11 *81:6 *87:9 0.00321419
12 *84:11 *87:9 0.0498803
13 *85:9 *87:9 0.0486794
*RES
1 *444:o_gpout[2] *87:7 4.968 
2 *87:7 *87:9 128.44 
3 *87:9 *87:11 4.5 
4 *87:11 *87:13 107.848 
5 *87:13 *87:15 4.5 
6 *87:15 io_out[19] 511.732 
*END

*D_NET *89 0.158126
*CONN
*P io_out[20] O
*I *444:o_gpout[3] O *D top_ew_algofoogle
*CAP
1 io_out[20] 0.0767377
2 *444:o_gpout[3] 0.00226887
3 *89:7 0.0790066
4 *89:7 *444:i_gpout3_sel[4] 8.23999e-05
5 *89:7 *444:i_gpout4_sel[1] 3.04744e-05
*RES
1 *444:o_gpout[3] *89:7 20.152 
2 *89:7 io_out[20] 648.804 
*END

*D_NET *115 0.113207
*CONN
*P la_data_in[0] I
*I *444:i_reset_lock_a I *D top_ew_algofoogle
*CAP
1 la_data_in[0] 0.0499532
2 *444:i_reset_lock_a 0.00630593
3 *115:7 0.00630593
4 *115:5 0.0499532
5 *444:i_reset_lock_a *444:i_gpout5_sel[1] 0.000340986
6 *444:i_reset_lock_a *444:i_gpout5_sel[3] 0.00034739
*RES
1 la_data_in[0] *115:5 421.876 
2 *115:5 *115:7 4.5 
3 *115:7 *444:i_reset_lock_a 49.972 
*END

*D_NET *116 0.219762
*CONN
*P la_data_in[10] I
*I *444:i_gpout0_sel[5] I *D top_ew_algofoogle
*CAP
1 la_data_in[10] 0.0271551
2 *444:i_gpout0_sel[5] 0.00110219
3 *116:13 0.00312774
4 *116:11 0.00202555
5 *116:9 0.00394839
6 *116:7 0.00394839
7 *116:5 0.0271551
8 *444:i_gpout0_sel[5] *444:i_gpout0_sel[3] 3.77155e-05
9 *116:9 *121:9 0.0247798
10 *116:9 *123:9 3.646e-05
11 *116:9 *160:9 0
12 *116:13 *117:13 0.000265841
13 *116:13 *121:13 0.0812637
14 *116:13 *150:13 0.0293355
15 *8:13 *116:13 0.0101323
16 *79:9 *116:13 0.00543362
17 *85:7 *444:i_gpout0_sel[5] 1.44169e-05
*RES
1 la_data_in[10] *116:5 223.444 
2 *116:5 *116:7 4.5 
3 *116:7 *116:9 62.92 
4 *116:9 *116:11 4.5 
5 *116:11 *116:13 208.52 
6 *116:13 *444:i_gpout0_sel[5] 11.208 
*END

*D_NET *117 0.240287
*CONN
*P la_data_in[11] I
*I *444:i_debug_vec_overlay I *D top_ew_algofoogle
*CAP
1 la_data_in[11] 0.0257643
2 *444:i_debug_vec_overlay 0.00129169
3 *117:13 0.0022604
4 *117:11 0.000968716
5 *117:9 0.00438527
6 *117:7 0.00438527
7 *117:5 0.0257643
8 *444:i_debug_vec_overlay *444:i_gpout5_sel[0] 0.000130901
9 *117:9 *444:i_spare_0 0.000256928
10 *117:9 *129:9 0.0294177
11 *117:13 *121:13 1.57479e-05
12 *117:13 *124:13 0
13 *117:13 *131:13 0.000483467
14 *117:13 *150:13 0.07066
15 *117:13 *159:5 0.0740481
16 *8:13 *117:13 0.000188113
17 *116:13 *117:13 0.000265841
*RES
1 la_data_in[11] *117:5 213.668 
2 *117:5 *117:7 4.5 
3 *117:7 *117:9 74.152 
4 *117:9 *117:11 4.5 
5 *117:11 *117:13 194.584 
6 *117:13 *444:i_debug_vec_overlay 11.832 
*END

*D_NET *118 0.240199
*CONN
*P la_data_in[12] I
*I *444:i_reg_csb I *D top_ew_algofoogle
*CAP
1 la_data_in[12] 0.00174429
2 *444:i_reg_csb 0.000691423
3 *118:13 0.0406862
4 *118:11 0.0399948
5 *118:9 0.00491379
6 *118:7 0.00665808
7 *444:i_reg_csb *444:i_reg_sclk 0.000163122
8 *444:i_reg_csb *444:i_test_uc2 6.88812e-05
9 *118:9 *124:9 0.0332467
10 *118:13 *131:13 0.10224
11 *118:13 *143:13 0
12 *118:13 *159:5 0
13 *118:13 *159:13 0.0018768
14 *8:13 *118:13 0.000773382
15 *79:9 *118:13 0.00558144
16 *82:9 *118:13 0.00156005
*RES
1 la_data_in[12] *118:7 18.28 
2 *118:7 *118:9 83.512 
3 *118:9 *118:11 4.5 
4 *118:11 *118:13 470.6 
5 *118:13 *444:i_reg_csb 10.584 
*END

*D_NET *119 0.377619
*CONN
*P la_data_in[13] I
*I *444:i_reg_sclk I *D top_ew_algofoogle
*CAP
1 la_data_in[13] 0.00394945
2 *444:i_reg_sclk 0.00126153
3 *119:13 0.00285343
4 *119:11 0.0015919
5 *119:9 0.0114213
6 *119:7 0.0153707
7 *444:i_reg_sclk *444:i_reg_mosi 0.000145957
8 *119:13 *120:13 0.00682054
9 *119:13 *124:13 0.173794
10 *119:13 *136:13 0.160247
11 *444:i_reg_csb *444:i_reg_sclk 0.000163122
*RES
1 la_data_in[13] *119:7 36.584 
2 *119:7 *119:9 97.448 
3 *119:9 *119:11 4.5 
4 *119:11 *119:13 453.544 
5 *119:13 *444:i_reg_sclk 13.912 
*END

*D_NET *120 0.313369
*CONN
*P la_data_in[14] I
*I *444:i_reg_mosi I *D top_ew_algofoogle
*CAP
1 la_data_in[14] 0.0252948
2 *444:i_reg_mosi 0.00141075
3 *120:13 0.00275936
4 *120:11 0.00134861
5 *120:9 0.00689392
6 *120:7 0.00689392
7 *120:5 0.0252948
8 *444:i_reg_mosi *444:i_gpout1_sel[5] 0.000153392
9 *120:9 *131:9 0.041587
10 *120:13 *122:13 0.00124136
11 *120:13 *125:13 0.10284
12 *120:13 *136:13 0.0906842
13 *444:i_reg_sclk *444:i_reg_mosi 0.000145957
14 *119:13 *120:13 0.00682054
*RES
1 la_data_in[14] *120:5 210.34 
2 *120:5 *120:7 4.5 
3 *120:7 *120:9 108.472 
4 *120:9 *120:11 4.5 
5 *120:11 *120:13 276.536 
6 *120:13 *444:i_reg_mosi 14.328 
*END

*D_NET *121 0.326829
*CONN
*P la_data_in[15] I
*I *444:i_gpout1_sel[0] I *D top_ew_algofoogle
*CAP
1 la_data_in[15] 0.0270493
2 *444:i_gpout1_sel[0] 0.0008446
3 *121:13 0.00172652
4 *121:11 0.000881916
5 *121:9 0.00344052
6 *121:7 0.00344052
7 *121:5 0.0270493
8 *444:i_gpout1_sel[0] *444:i_gpout2_sel[3] 0.000155069