*SPEF "ieee 1481-1999"
*DESIGN "wrapped_wb_hyperram"
*DATE "11:11:11 Fri 11 11, 1111"
*VENDOR "OpenRCX"
*PROGRAM "Parallel Extraction"
*VERSION "1.0"
*DESIGN_FLOW "NAME_SCOPE LOCAL" "PIN_CAP NONE"
*DIVIDER /
*DELIMITER :
*BUS_DELIMITER []
*T_UNIT 1 NS
*C_UNIT 1 PF
*R_UNIT 1 OHM
*L_UNIT 1 HENRY

*NAME_MAP
*1 io_in[0]
*2 io_in[10]
*3 io_in[11]
*4 io_in[12]
*5 io_in[1]
*6 io_in[2]
*7 io_in[3]
*8 io_in[4]
*9 io_in[5]
*10 io_in[6]
*11 io_in[7]
*12 io_in[8]
*13 io_in[9]
*14 net141
*15 io_oeb[10]
*16 io_oeb[11]
*17 io_oeb[12]
*18 net142
*19 net143
*20 net144
*21 io_oeb[4]
*22 io_oeb[5]
*23 io_oeb[6]
*24 io_oeb[7]
*25 io_oeb[8]
*26 io_oeb[9]
*27 io_out[0]
*28 io_out[10]
*29 io_out[11]
*30 io_out[12]
*31 io_out[1]
*32 io_out[2]
*33 io_out[3]
*34 io_out[4]
*35 io_out[5]
*36 io_out[6]
*37 io_out[7]
*38 io_out[8]
*39 io_out[9]
*40 rst_i
*43 wb_clk_i
*44 wb_rst_i
*45 wbs_ack_o
*46 wbs_adr_i[0]
*47 wbs_adr_i[10]
*48 wbs_adr_i[11]
*49 wbs_adr_i[12]
*50 wbs_adr_i[13]
*51 wbs_adr_i[14]
*52 wbs_adr_i[15]
*53 wbs_adr_i[16]
*54 wbs_adr_i[17]
*55 wbs_adr_i[18]
*56 wbs_adr_i[19]
*57 wbs_adr_i[1]
*58 wbs_adr_i[20]
*59 wbs_adr_i[21]
*60 wbs_adr_i[22]
*61 wbs_adr_i[23]
*62 wbs_adr_i[24]
*63 wbs_adr_i[25]
*64 wbs_adr_i[26]
*65 wbs_adr_i[27]
*66 wbs_adr_i[28]
*67 wbs_adr_i[29]
*68 wbs_adr_i[2]
*69 wbs_adr_i[30]
*70 wbs_adr_i[31]
*71 wbs_adr_i[3]
*72 wbs_adr_i[4]
*73 wbs_adr_i[5]
*74 wbs_adr_i[6]
*75 wbs_adr_i[7]
*76 wbs_adr_i[8]
*77 wbs_adr_i[9]
*78 wbs_cyc_i
*79 wbs_dat_i[0]
*80 wbs_dat_i[10]
*81 wbs_dat_i[11]
*82 wbs_dat_i[12]
*83 wbs_dat_i[13]
*84 wbs_dat_i[14]
*85 wbs_dat_i[15]
*86 wbs_dat_i[16]
*87 wbs_dat_i[17]
*88 wbs_dat_i[18]
*89 wbs_dat_i[19]
*90 wbs_dat_i[1]
*91 wbs_dat_i[20]
*92 wbs_dat_i[21]
*93 wbs_dat_i[22]
*94 wbs_dat_i[23]
*95 wbs_dat_i[24]
*96 wbs_dat_i[25]
*97 wbs_dat_i[26]
*98 wbs_dat_i[27]
*99 wbs_dat_i[28]
*100 wbs_dat_i[29]
*101 wbs_dat_i[2]
*102 wbs_dat_i[30]
*103 wbs_dat_i[31]
*104 wbs_dat_i[3]
*105 wbs_dat_i[4]
*106 wbs_dat_i[5]
*107 wbs_dat_i[6]
*108 wbs_dat_i[7]
*109 wbs_dat_i[8]
*110 wbs_dat_i[9]
*111 wbs_dat_o[0]
*112 wbs_dat_o[10]
*113 wbs_dat_o[11]
*114 wbs_dat_o[12]
*115 wbs_dat_o[13]
*116 wbs_dat_o[14]
*117 wbs_dat_o[15]
*118 wbs_dat_o[16]
*119 wbs_dat_o[17]
*120 wbs_dat_o[18]
*121 wbs_dat_o[19]
*122 wbs_dat_o[1]
*123 wbs_dat_o[20]
*124 wbs_dat_o[21]
*125 wbs_dat_o[22]
*126 wbs_dat_o[23]
*127 wbs_dat_o[24]
*128 wbs_dat_o[25]
*129 wbs_dat_o[26]
*130 wbs_dat_o[27]
*131 wbs_dat_o[28]
*132 wbs_dat_o[29]
*133 wbs_dat_o[2]
*134 wbs_dat_o[30]
*135 wbs_dat_o[31]
*136 wbs_dat_o[3]
*137 wbs_dat_o[4]
*138 wbs_dat_o[5]
*139 wbs_dat_o[6]
*140 wbs_dat_o[7]
*141 wbs_dat_o[8]
*142 wbs_dat_o[9]
*143 wbs_sel_i[0]
*144 wbs_sel_i[1]
*145 wbs_sel_i[2]
*146 wbs_sel_i[3]
*147 wbs_stb_i
*148 wbs_we_i
*149 _0000_
*150 _0001_
*151 _0002_
*152 _0003_
*153 _0004_
*154 _0005_
*155 _0006_
*156 _0007_
*157 _0008_
*158 _0009_
*159 _0010_
*160 _0011_
*161 _0012_
*162 _0013_
*163 _0014_
*164 _0015_
*165 _0016_
*166 _0017_
*167 _0018_
*168 _0019_
*169 _0020_
*170 _0021_
*171 _0022_
*172 _0023_
*173 _0024_
*174 _0025_
*175 _0026_
*176 _0027_
*177 _0028_
*178 _0029_
*179 _0030_
*180 _0031_
*181 _0032_
*182 _0033_
*183 _0034_
*184 _0035_
*185 _0036_
*186 _0037_
*187 _0038_
*188 _0039_
*189 _0040_
*190 _0041_
*191 _0042_
*192 _0043_
*193 _0044_
*194 _0045_
*195 _0046_
*196 _0047_
*197 _0048_
*198 _0049_
*199 _0050_
*200 _0051_
*201 _0052_
*202 _0053_
*203 _0054_
*204 _0055_
*205 _0056_
*206 _0057_
*207 _0058_
*208 _0059_
*209 _0060_
*210 _0061_
*211 _0062_
*212 _0063_
*213 _0064_
*214 _0065_
*215 _0066_
*216 _0067_
*217 _0068_
*218 _0069_
*219 _0070_
*220 _0071_
*221 _0072_
*222 _0073_
*223 _0074_
*224 _0075_
*225 _0076_
*226 _0077_
*227 _0078_
*228 _0079_
*229 _0080_
*230 _0081_
*231 _0082_
*232 _0083_
*233 _0084_
*234 _0085_
*235 _0086_
*236 _0087_
*237 _0088_
*238 _0089_
*239 _0090_
*240 _0091_
*241 _0092_
*242 _0093_
*243 _0094_
*244 _0095_
*245 _0096_
*246 _0097_
*247 _0098_
*248 _0099_
*249 _0100_
*250 _0101_
*251 _0102_
*252 _0103_
*253 _0104_
*254 _0105_
*255 _0106_
*256 _0107_
*257 _0108_
*258 _0109_
*259 _0110_
*260 _0111_
*261 _0112_
*262 _0113_
*263 _0114_
*264 _0115_
*265 _0116_
*266 _0117_
*267 _0118_
*268 _0119_
*269 _0120_
*270 _0121_
*271 _0122_
*272 _0123_
*273 _0124_
*274 _0125_
*275 _0126_
*276 _0127_
*277 _0128_
*278 _0129_
*279 _0130_
*280 _0131_
*281 _0132_
*282 _0133_
*283 _0134_
*284 _0135_
*285 _0136_
*286 _0137_
*287 _0138_
*288 _0139_
*289 _0140_
*290 _0141_
*291 _0142_
*292 _0143_
*293 _0144_
*294 _0145_
*295 _0146_
*296 _0147_
*297 _0148_
*298 _0149_
*299 _0150_
*300 _0151_
*301 _0152_
*302 _0153_
*303 _0154_
*304 _0155_
*305 _0156_
*306 _0157_
*307 _0158_
*308 _0159_
*309 _0160_
*310 _0161_
*311 _0162_
*312 _0163_
*313 _0164_
*314 _0165_
*315 _0166_
*316 _0167_
*317 _0168_
*318 _0169_
*319 _0170_
*320 _0171_
*321 _0172_
*322 _0173_
*323 _0174_
*324 _0175_
*325 _0176_
*326 _0177_
*327 _0178_
*328 _0179_
*329 _0180_
*330 _0181_
*331 _0182_
*332 _0183_
*333 _0184_
*334 _0185_
*335 _0186_
*336 _0187_
*337 _0188_
*338 _0189_
*339 _0190_
*340 _0191_
*341 _0192_
*342 _0193_
*343 _0194_
*344 _0195_
*345 _0196_
*346 _0197_
*347 _0198_
*348 _0199_
*349 _0200_
*350 _0201_
*351 _0202_
*352 _0203_
*353 _0204_
*354 _0205_
*355 _0206_
*356 _0207_
*357 _0208_
*358 _0209_
*359 _0210_
*360 _0211_
*361 _0212_
*362 _0213_
*363 _0214_
*364 _0215_
*365 _0216_
*366 _0217_
*367 _0218_
*368 _0219_
*369 _0220_
*370 _0221_
*371 _0222_
*372 _0223_
*373 _0224_
*374 _0225_
*375 _0226_
*376 _0227_
*377 _0228_
*378 _0229_
*379 _0230_
*380 _0231_
*381 _0232_
*382 _0233_
*383 _0234_
*384 _0235_
*385 _0236_
*386 _0237_
*387 _0238_
*388 _0239_
*389 _0240_
*390 _0241_
*391 _0242_
*392 _0243_
*393 _0244_
*394 _0245_
*395 _0246_
*396 _0247_
*397 _0248_
*398 _0249_
*399 _0250_
*400 _0251_
*401 _0252_
*402 _0253_
*403 _0254_
*404 _0255_
*405 _0256_
*406 _0257_
*407 _0258_
*408 _0259_
*409 _0260_
*410 _0261_
*411 _0262_
*412 _0263_
*413 _0264_
*414 _0265_
*415 _0266_
*416 _0267_
*417 _0268_
*418 _0269_
*419 _0270_
*420 _0271_
*421 _0272_
*422 _0273_
*423 _0274_
*424 _0275_
*425 _0276_
*426 _0277_
*427 _0278_
*428 _0279_
*429 _0280_
*430 _0281_
*431 _0282_
*432 _0283_
*433 _0284_
*434 _0285_
*435 _0286_
*436 _0287_
*437 _0288_
*438 _0289_
*439 _0290_
*440 _0291_
*441 _0292_
*442 _0293_
*443 _0294_
*444 _0295_
*445 _0296_
*446 _0297_
*447 _0298_
*448 _0299_
*449 _0300_
*450 _0301_
*451 _0302_
*452 _0303_
*453 _0304_
*454 _0305_
*455 _0306_
*456 _0307_
*457 _0308_
*458 _0309_
*459 _0310_
*460 _0311_
*461 _0312_
*462 _0313_
*463 _0314_
*464 _0315_
*465 _0316_
*466 _0317_
*467 _0318_
*468 _0319_
*469 _0320_
*470 _0321_
*471 _0322_
*472 _0323_
*473 _0324_
*474 _0325_
*475 _0326_
*476 _0327_
*477 _0328_
*478 _0329_
*479 _0330_
*480 _0331_
*481 _0332_
*482 _0333_
*483 _0334_
*484 _0335_
*485 _0336_
*486 _0337_
*487 _0338_
*488 _0339_
*489 _0340_
*490 _0341_
*491 _0342_
*492 _0343_
*493 _0344_
*494 _0345_
*495 _0346_
*496 _0347_
*497 _0348_
*498 _0349_
*499 _0350_
*500 _0351_
*501 _0352_
*502 _0353_
*503 _0354_
*504 _0355_
*505 _0356_
*506 _0357_
*507 _0358_
*508 _0359_
*509 _0360_
*510 _0361_
*511 _0362_
*512 _0363_
*513 _0364_
*514 _0365_
*515 _0366_
*516 _0367_
*517 _0368_
*518 _0369_
*519 _0370_
*520 _0371_
*521 _0372_
*522 _0373_
*523 _0374_
*524 _0375_
*525 _0376_
*526 _0377_
*527 _0378_
*528 _0379_
*529 _0380_
*530 _0381_
*531 _0382_
*532 _0383_
*533 _0384_
*534 _0385_
*535 _0386_
*536 _0387_
*537 _0388_
*538 _0389_
*539 _0390_
*540 _0391_
*541 _0392_
*542 _0393_
*543 _0394_
*544 _0395_
*545 _0396_
*546 _0397_
*547 _0398_
*548 _0399_
*549 _0400_
*550 _0401_
*551 _0402_
*552 _0403_
*553 _0404_
*554 _0405_
*555 _0406_
*556 _0407_
*557 _0408_
*558 _0409_
*559 _0410_
*560 _0411_
*561 _0412_
*562 _0413_
*563 _0414_
*564 _0415_
*565 _0416_
*566 _0417_
*567 _0418_
*568 _0419_
*569 _0420_
*570 _0421_
*571 _0422_
*572 _0423_
*573 _0424_
*574 _0425_
*575 _0426_
*576 _0427_
*577 _0428_
*578 _0429_
*579 _0430_
*580 _0431_
*581 _0432_
*582 _0433_
*583 _0434_
*584 _0435_
*585 _0436_
*586 _0437_
*587 _0438_
*588 _0439_
*589 _0440_
*590 _0441_
*591 _0442_
*592 _0443_
*593 _0444_
*594 _0445_
*595 _0446_
*596 _0447_
*597 _0448_
*598 _0449_
*599 _0450_
*600 _0451_
*601 _0452_
*602 _0453_
*603 _0454_
*604 _0455_
*605 _0456_
*606 _0457_
*607 _0458_
*608 _0459_
*609 _0460_
*610 _0461_
*611 _0462_
*612 _0463_
*613 _0464_
*614 _0465_
*615 _0466_
*616 _0467_
*617 _0468_
*618 _0469_
*619 _0470_
*620 _0471_
*621 _0472_
*622 _0473_
*623 _0474_
*624 _0475_
*625 _0476_
*626 _0477_
*627 _0478_
*628 _0479_
*629 _0480_
*630 _0481_
*631 _0482_
*632 _0483_
*633 _0484_
*634 _0485_
*635 _0486_
*636 _0487_
*637 _0488_
*638 _0489_
*639 _0490_
*640 _0491_
*641 _0492_
*642 _0493_
*643 _0494_
*644 _0495_
*645 _0496_
*646 _0497_
*647 _0498_
*648 _0499_
*649 _0500_
*650 _0501_
*651 _0502_
*652 _0503_
*653 _0504_
*654 _0505_
*655 _0506_
*656 _0507_
*657 _0508_
*658 _0509_
*659 _0510_
*660 _0511_
*661 _0512_
*662 _0513_
*663 _0514_
*664 _0515_
*665 _0516_
*666 _0517_
*667 _0518_
*668 _0519_
*669 _0520_
*670 _0521_
*671 _0522_
*672 _0523_
*673 _0524_
*674 _0525_
*675 _0526_
*676 _0527_
*677 _0528_
*678 _0529_
*679 _0530_
*680 _0531_
*681 _0532_
*682 _0533_
*683 _0534_
*684 _0535_
*685 _0536_
*686 _0537_
*687 _0538_
*688 _0539_
*689 _0540_
*690 _0541_
*691 _0542_
*692 _0543_
*693 _0544_
*694 _0545_
*695 _0546_
*696 _0547_
*697 _0548_
*698 _0549_
*699 _0550_
*700 _0551_
*701 _0552_
*702 _0553_
*703 _0554_
*704 _0555_
*705 _0556_
*706 _0557_
*707 _0558_
*708 _0559_
*709 _0560_
*710 _0561_
*711 _0562_
*712 _0563_
*713 _0564_
*714 _0565_
*715 _0566_
*716 _0567_
*717 _0568_
*718 _0569_
*719 _0570_
*720 _0571_
*721 _0572_
*722 _0573_
*723 _0574_
*724 _0575_
*725 _0576_
*726 _0577_
*727 _0578_
*728 _0579_
*729 _0580_
*730 _0581_
*731 _0582_
*732 _0583_
*733 _0584_
*734 _0585_
*735 _0586_
*736 _0587_
*737 _0588_
*738 _0589_
*739 _0590_
*740 _0591_
*741 _0592_
*742 _0593_
*743 _0594_
*744 _0595_
*745 _0596_
*746 _0597_
*747 _0598_
*748 _0599_
*749 _0600_
*750 _0601_
*751 _0602_
*752 _0603_
*753 _0604_
*754 _0605_
*755 _0606_
*756 _0607_
*757 _0608_
*758 _0609_
*759 _0610_
*760 _0611_
*761 _0612_
*762 _0613_
*763 _0614_
*764 _0615_
*765 _0616_
*766 _0617_
*767 _0618_
*768 _0619_
*769 _0620_
*770 _0621_
*771 _0622_
*772 _0623_
*773 _0624_
*774 _0625_
*775 _0626_
*776 _0627_
*777 _0628_
*778 _0629_
*779 _0630_
*780 _0631_
*781 _0632_
*782 _0633_
*783 _0634_
*784 _0635_
*785 _0636_
*786 _0637_
*787 _0638_
*788 _0639_
*789 _0640_
*790 _0641_
*791 _0642_
*792 _0643_
*793 _0644_
*794 _0645_
*795 _0646_
*796 _0647_
*797 _0648_
*798 _0649_
*799 _0650_
*800 _0651_
*801 _0652_
*802 _0653_
*803 _0654_
*804 _0655_
*805 _0656_
*806 _0657_
*807 _0658_
*808 _0659_
*809 _0660_
*810 _0661_
*811 _0662_
*812 _0663_
*813 _0664_
*814 _0665_
*815 _0666_
*816 _0667_
*817 _0668_
*818 _0669_
*819 _0670_
*820 _0671_
*821 _0672_
*822 _0673_
*823 _0674_
*824 _0675_
*825 _0676_
*826 _0677_
*827 _0678_
*828 _0679_
*829 _0680_
*830 _0681_
*831 _0682_
*832 _0683_
*833 _0684_
*834 _0685_
*835 _0686_
*836 _0687_
*837 _0688_
*838 _0689_
*839 _0690_
*840 _0691_
*841 _0692_
*842 _0693_
*843 _0694_
*844 _0695_
*845 _0696_
*846 _0697_
*847 _0698_
*848 _0699_
*849 _0700_
*850 _0701_
*851 _0702_
*852 _0703_
*853 _0704_
*854 _0705_
*855 _0706_
*856 _0707_
*857 _0708_
*858 _0709_
*859 _0710_
*860 _0711_
*861 _0712_
*862 _0713_
*863 _0714_
*864 _0715_
*865 _0716_
*866 _0717_
*867 _0718_
*868 _0719_
*869 _0720_
*870 _0721_
*871 _0722_
*872 _0723_
*873 _0724_
*874 _0725_
*875 _0726_
*876 _0727_
*877 _0728_
*878 _0729_
*879 _0730_
*880 _0731_
*881 _0732_
*882 _0733_
*883 _0734_
*884 _0735_
*885 _0736_
*886 _0737_
*887 _0738_
*888 _0739_
*889 _0740_
*890 _0741_
*891 _0742_
*892 _0743_
*893 _0744_
*894 _0745_
*895 _0746_
*896 _0747_
*897 _0748_
*898 _0749_
*899 _0750_
*900 _0751_
*901 _0752_
*902 _0753_
*903 _0754_
*904 _0755_
*905 _0756_
*906 _0757_
*907 _0758_
*908 _0759_
*909 _0760_
*910 _0761_
*911 _0762_
*912 _0763_
*913 _0764_
*914 _0765_
*915 _0766_
*916 _0767_
*917 _0768_
*918 _0769_
*919 _0770_
*920 _0771_
*921 _0772_
*922 _0773_
*923 _0774_
*924 _0775_
*925 _0776_
*926 _0777_
*927 _0778_
*928 _0779_
*929 _0780_
*930 _0781_
*931 _0782_
*932 _0783_
*933 _0784_
*934 _0785_
*935 _0786_
*936 _0787_
*937 _0788_
*938 _0789_
*939 _0790_
*940 _0791_
*941 _0792_
*942 _0793_
*943 _0794_
*944 _0795_
*945 _0796_
*946 _0797_
*947 _0798_
*948 _0799_
*949 _0800_
*950 _0801_
*951 _0802_
*952 _0803_
*953 _0804_
*954 _0805_
*955 _0806_
*956 _0807_
*957 _0808_
*958 _0809_
*959 _0810_
*960 _0811_
*961 _0812_
*962 _0813_
*963 _0814_
*964 _0815_
*965 _0816_
*966 _0817_
*967 _0818_
*968 _0819_
*969 _0820_
*970 _0821_
*971 _0822_
*972 _0823_
*973 _0824_
*974 _0825_
*975 _0826_
*976 _0827_
*977 _0828_
*978 _0829_
*979 _0830_
*980 _0831_
*981 _0832_
*982 _0833_
*983 _0834_
*984 _0835_
*985 _0836_
*986 _0837_
*987 _0838_
*988 _0839_
*989 _0840_
*990 _0841_
*991 _0842_
*992 _0843_
*993 _0844_
*994 _0845_
*995 _0846_
*996 _0847_
*997 _0848_
*998 _0849_
*999 _0850_
*1000 _0851_
*1001 _0852_
*1002 _0853_
*1003 _0854_
*1004 _0855_
*1005 _0856_
*1006 _0857_
*1007 _0858_
*1008 _0859_
*1009 _0860_
*1010 _0861_
*1011 _0862_
*1012 _0863_
*1013 _0864_
*1014 _0865_
*1015 _0866_
*1016 _0867_
*1017 _0868_
*1018 _0869_
*1019 _0870_
*1020 _0871_
*1021 _0872_
*1022 _0873_
*1023 _0874_
*1024 _0875_
*1025 _0876_
*1026 _0877_
*1027 _0878_
*1028 _0879_
*1029 _0880_
*1030 _0881_
*1031 _0882_
*1032 _0883_
*1033 _0884_
*1034 _0885_
*1035 _0886_
*1036 _0887_
*1037 _0888_
*1038 _0889_
*1039 _0890_
*1040 _0891_
*1041 _0892_
*1042 _0893_
*1043 _0894_
*1044 _0895_
*1045 _0896_
*1046 _0897_
*1047 _0898_
*1048 _0899_
*1049 _0900_
*1050 _0901_
*1051 _0902_
*1052 _0903_
*1053 _0904_
*1054 _0905_
*1055 _0906_
*1056 _0907_
*1057 _0908_
*1058 _0909_
*1059 _0910_
*1060 _0911_
*1061 _0912_
*1062 _0913_
*1063 _0914_
*1064 _0915_
*1065 _0916_
*1066 _0917_
*1067 _0918_
*1068 _0919_
*1069 _0920_
*1070 _0921_
*1071 _0922_
*1072 _0923_
*1073 _0924_
*1074 _0925_
*1075 _0926_
*1076 _0927_
*1077 _0928_
*1078 _0929_
*1079 _0930_
*1080 _0931_
*1081 _0932_
*1082 _0933_
*1083 _0934_
*1084 _0935_
*1085 _0936_
*1086 _0937_
*1087 _0938_
*1088 _0939_
*1089 _0940_
*1090 _0941_
*1091 _0942_
*1092 _0943_
*1093 _0944_
*1094 _0945_
*1095 _0946_
*1096 _0947_
*1097 _0948_
*1098 _0949_
*1099 _0950_
*1100 _0951_
*1101 _0952_
*1102 _0953_
*1103 _0954_
*1104 _0955_
*1105 _0956_
*1106 _0957_
*1107 _0958_
*1108 _0959_
*1109 _0960_
*1110 _0961_
*1111 _0962_
*1112 _0963_
*1113 _0964_
*1114 _0965_
*1115 _0966_
*1116 _0967_
*1117 _0968_
*1118 _0969_
*1119 _0970_
*1120 _0971_
*1121 clknet_0_wb_clk_i
*1122 clknet_3_0_0_wb_clk_i
*1123 clknet_3_1_0_wb_clk_i
*1124 clknet_3_2_0_wb_clk_i
*1125 clknet_3_3_0_wb_clk_i
*1126 clknet_3_4_0_wb_clk_i
*1127 clknet_3_5_0_wb_clk_i
*1128 clknet_3_6_0_wb_clk_i
*1129 clknet_3_7_0_wb_clk_i
*1130 clknet_4_0__leaf_wb_clk_i
*1131 clknet_4_10__leaf_wb_clk_i
*1132 clknet_4_11__leaf_wb_clk_i
*1133 clknet_4_12__leaf_wb_clk_i
*1134 clknet_4_13__leaf_wb_clk_i
*1135 clknet_4_14__leaf_wb_clk_i
*1136 clknet_4_15__leaf_wb_clk_i
*1137 clknet_4_1__leaf_wb_clk_i
*1138 clknet_4_2__leaf_wb_clk_i
*1139 clknet_4_3__leaf_wb_clk_i
*1140 clknet_4_4__leaf_wb_clk_i
*1141 clknet_4_5__leaf_wb_clk_i
*1142 clknet_4_6__leaf_wb_clk_i
*1143 clknet_4_7__leaf_wb_clk_i
*1144 clknet_4_8__leaf_wb_clk_i
*1145 clknet_4_9__leaf_wb_clk_i
*1146 net1
*1147 net10
*1148 net100
*1149 net101
*1150 net102
*1151 net103
*1152 net104
*1153 net105
*1154 net106
*1155 net107
*1156 net108
*1157 net109
*1158 net11
*1159 net110
*1160 net111
*1161 net112
*1162 net113
*1163 net114
*1164 net115
*1165 net116
*1166 net117
*1167 net118
*1168 net119
*1169 net12
*1170 net120
*1171 net121
*1172 net122
*1173 net123
*1174 net124
*1175 net125
*1176 net126
*1177 net127
*1178 net128
*1179 net129
*1180 net13
*1181 net130
*1182 net131
*1183 net132
*1184 net133
*1185 net134
*1186 net135
*1187 net136
*1188 net137
*1189 net138
*1190 net139
*1191 net14
*1192 net140
*1193 net145
*1194 net146
*1195 net147
*1196 net148
*1197 net149
*1198 net15
*1199 net150
*1200 net151
*1201 net152
*1202 net153
*1203 net154
*1204 net155
*1205 net156
*1206 net157
*1207 net158
*1208 net159
*1209 net16
*1210 net160
*1211 net161
*1212 net162
*1213 net163
*1214 net164
*1215 net165
*1216 net166
*1217 net167
*1218 net168
*1219 net169
*1220 net17
*1221 net170
*1222 net171
*1223 net172
*1224 net173
*1225 net174
*1226 net175
*1227 net176
*1228 net177
*1229 net178
*1230 net179
*1231 net18
*1232 net180
*1233 net181
*1234 net182
*1235 net183
*1236 net184
*1237 net185
*1238 net186
*1239 net187
*1240 net188
*1241 net189
*1242 net19
*1243 net190
*1244 net191
*1245 net192
*1246 net193
*1247 net194
*1248 net195
*1249 net196
*1250 net197
*1251 net198
*1252 net199
*1253 net2
*1254 net20
*1255 net200
*1256 net201
*1257 net202
*1258 net203
*1259 net204
*1260 net205
*1261 net206
*1262 net207
*1263 net208
*1264 net209
*1265 net21
*1266 net210
*1267 net211
*1268 net212
*1269 net213
*1270 net214
*1271 net215
*1272 net216
*1273 net217
*1274 net218
*1275 net219
*1276 net22
*1277 net220
*1278 net221
*1279 net222
*1280 net223
*1281 net224
*1282 net225
*1283 net226
*1284 net227
*1285 net228
*1286 net23
*1287 net230
*1288 net231
*1289 net232
*1290 net233
*1291 net234
*1292 net235
*1293 net236
*1294 net237
*1295 net238
*1296 net239
*1297 net24
*1298 net240
*1299 net241
*1300 net242
*1301 net243
*1302 net244
*1303 net245
*1304 net246
*1305 net247
*1306 net248
*1307 net249
*1308 net25
*1309 net250
*1310 net251
*1311 net252
*1312 net253
*1313 net254
*1314 net26
*1315 net27
*1316 net28
*1317 net29
*1318 net3
*1319 net30
*1320 net31
*1321 net32
*1322 net33
*1323 net34
*1324 net35
*1325 net36
*1326 net37
*1327 net38
*1328 net39
*1329 net4
*1330 net40
*1331 net41
*1332 net42
*1333 net43
*1334 net44
*1335 net45
*1336 net46
*1337 net47
*1338 net48
*1339 net49
*1340 net5
*1341 net50
*1342 net51
*1343 net52
*1344 net53
*1345 net54
*1346 net55
*1347 net56
*1348 net57
*1349 net58
*1350 net59
*1351 net6
*1352 net60
*1353 net61
*1354 net62
*1355 net63
*1356 net64
*1357 net65
*1358 net66
*1359 net67
*1360 net68
*1361 net69
*1362 net7
*1363 net70
*1364 net71
*1365 net72
*1366 net73
*1367 net74
*1368 net75
*1369 net76
*1370 net77
*1371 net78
*1372 net79
*1373 net8
*1374 net80
*1375 net81
*1376 net82
*1377 net83
*1378 net84
*1379 net85
*1380 net86
*1381 net87
*1382 net88
*1383 net89
*1384 net9
*1385 net90
*1386 net91
*1387 net92
*1388 net93
*1389 net94
*1390 net95
*1391 net96
*1392 net97
*1393 net98
*1394 net99
*1395 wb_hyperram\.csr_ack_r
*1396 wb_hyperram\.csr_valid_prev_r
*1397 wb_hyperram\.double_latency
*1398 wb_hyperram\.fixed_latency
*1399 wb_hyperram\.hb_data_out\[0\]
*1400 wb_hyperram\.hb_data_out\[10\]
*1401 wb_hyperram\.hb_data_out\[11\]
*1402 wb_hyperram\.hb_data_out\[12\]
*1403 wb_hyperram\.hb_data_out\[13\]
*1404 wb_hyperram\.hb_data_out\[14\]
*1405 wb_hyperram\.hb_data_out\[15\]
*1406 wb_hyperram\.hb_data_out\[16\]
*1407 wb_hyperram\.hb_data_out\[17\]
*1408 wb_hyperram\.hb_data_out\[18\]
*1409 wb_hyperram\.hb_data_out\[19\]
*1410 wb_hyperram\.hb_data_out\[1\]
*1411 wb_hyperram\.hb_data_out\[20\]
*1412 wb_hyperram\.hb_data_out\[21\]
*1413 wb_hyperram\.hb_data_out\[22\]
*1414 wb_hyperram\.hb_data_out\[23\]
*1415 wb_hyperram\.hb_data_out\[24\]
*1416 wb_hyperram\.hb_data_out\[25\]
*1417 wb_hyperram\.hb_data_out\[26\]
*1418 wb_hyperram\.hb_data_out\[27\]
*1419 wb_hyperram\.hb_data_out\[28\]
*1420 wb_hyperram\.hb_data_out\[29\]
*1421 wb_hyperram\.hb_data_out\[2\]
*1422 wb_hyperram\.hb_data_out\[30\]
*1423 wb_hyperram\.hb_data_out\[31\]
*1424 wb_hyperram\.hb_data_out\[3\]
*1425 wb_hyperram\.hb_data_out\[4\]
*1426 wb_hyperram\.hb_data_out\[5\]
*1427 wb_hyperram\.hb_data_out\[6\]
*1428 wb_hyperram\.hb_data_out\[7\]
*1429 wb_hyperram\.hb_data_out\[8\]
*1430 wb_hyperram\.hb_data_out\[9\]
*1431 wb_hyperram\.hb_read_timeout
*1432 wb_hyperram\.hb_valid_prev_r
*1433 wb_hyperram\.hram\.CA_r\[0\]
*1434 wb_hyperram\.hram\.CA_r\[16\]
*1435 wb_hyperram\.hram\.CA_r\[17\]
*1436 wb_hyperram\.hram\.CA_r\[18\]
*1437 wb_hyperram\.hram\.CA_r\[19\]
*1438 wb_hyperram\.hram\.CA_r\[1\]
*1439 wb_hyperram\.hram\.CA_r\[20\]
*1440 wb_hyperram\.hram\.CA_r\[21\]
*1441 wb_hyperram\.hram\.CA_r\[22\]
*1442 wb_hyperram\.hram\.CA_r\[23\]
*1443 wb_hyperram\.hram\.CA_r\[24\]
*1444 wb_hyperram\.hram\.CA_r\[25\]
*1445 wb_hyperram\.hram\.CA_r\[26\]
*1446 wb_hyperram\.hram\.CA_r\[27\]
*1447 wb_hyperram\.hram\.CA_r\[28\]
*1448 wb_hyperram\.hram\.CA_r\[29\]
*1449 wb_hyperram\.hram\.CA_r\[2\]
*1450 wb_hyperram\.hram\.CA_r\[30\]
*1451 wb_hyperram\.hram\.CA_r\[31\]
*1452 wb_hyperram\.hram\.CA_r\[32\]
*1453 wb_hyperram\.hram\.CA_r\[33\]
*1454 wb_hyperram\.hram\.CA_r\[34\]
*1455 wb_hyperram\.hram\.CA_r\[45\]
*1456 wb_hyperram\.hram\.CA_r\[46\]
*1457 wb_hyperram\.hram\.CA_r\[47\]
*1458 wb_hyperram\.hram\.bus_state_r\[0\]
*1459 wb_hyperram\.hram\.bus_state_r\[1\]
*1460 wb_hyperram\.hram\.bus_state_r\[2\]
*1461 wb_hyperram\.hram\.busy_r
*1462 wb_hyperram\.hram\.cycle_cnt_r\[0\]
*1463 wb_hyperram\.hram\.cycle_cnt_r\[1\]
*1464 wb_hyperram\.hram\.cycle_cnt_r\[2\]
*1465 wb_hyperram\.hram\.cycle_cnt_r\[3\]
*1466 wb_hyperram\.hram\.cycle_cnt_r\[4\]
*1467 wb_hyperram\.hram\.cycle_cnt_r\[5\]
*1468 wb_hyperram\.hram\.dataw_r\[0\]
*1469 wb_hyperram\.hram\.dataw_r\[10\]
*1470 wb_hyperram\.hram\.dataw_r\[11\]
*1471 wb_hyperram\.hram\.dataw_r\[12\]
*1472 wb_hyperram\.hram\.dataw_r\[13\]
*1473 wb_hyperram\.hram\.dataw_r\[14\]
*1474 wb_hyperram\.hram\.dataw_r\[15\]
*1475 wb_hyperram\.hram\.dataw_r\[16\]
*1476 wb_hyperram\.hram\.dataw_r\[17\]
*1477 wb_hyperram\.hram\.dataw_r\[18\]
*1478 wb_hyperram\.hram\.dataw_r\[19\]
*1479 wb_hyperram\.hram\.dataw_r\[1\]
*1480 wb_hyperram\.hram\.dataw_r\[20\]
*1481 wb_hyperram\.hram\.dataw_r\[21\]
*1482 wb_hyperram\.hram\.dataw_r\[22\]
*1483 wb_hyperram\.hram\.dataw_r\[23\]
*1484 wb_hyperram\.hram\.dataw_r\[24\]
*1485 wb_hyperram\.hram\.dataw_r\[25\]
*1486 wb_hyperram\.hram\.dataw_r\[26\]
*1487 wb_hyperram\.hram\.dataw_r\[27\]
*1488 wb_hyperram\.hram\.dataw_r\[28\]
*1489 wb_hyperram\.hram\.dataw_r\[29\]
*1490 wb_hyperram\.hram\.dataw_r\[2\]
*1491 wb_hyperram\.hram\.dataw_r\[30\]
*1492 wb_hyperram\.hram\.dataw_r\[31\]
*1493 wb_hyperram\.hram\.dataw_r\[3\]
*1494 wb_hyperram\.hram\.dataw_r\[4\]
*1495 wb_hyperram\.hram\.dataw_r\[5\]
*1496 wb_hyperram\.hram\.dataw_r\[6\]
*1497 wb_hyperram\.hram\.dataw_r\[7\]
*1498 wb_hyperram\.hram\.dataw_r\[8\]
*1499 wb_hyperram\.hram\.dataw_r\[9\]
*1500 wb_hyperram\.hram\.double_latency_r
*1501 wb_hyperram\.hram\.fixed_latency_r
*1502 wb_hyperram\.hram\.read_cnt_r\[0\]
*1503 wb_hyperram\.hram\.read_cnt_r\[1\]
*1504 wb_hyperram\.hram\.read_cnt_r\[2\]
*1505 wb_hyperram\.hram\.rwds_2x_latency_r
*1506 wb_hyperram\.hram\.rwds_r
*1507 wb_hyperram\.hram\.sel_r\[0\]
*1508 wb_hyperram\.hram\.sel_r\[1\]
*1509 wb_hyperram\.hram\.sel_r\[2\]
*1510 wb_hyperram\.hram\.sel_r\[3\]
*1511 wb_hyperram\.hram\.tacc_i\[0\]
*1512 wb_hyperram\.hram\.tacc_i\[1\]
*1513 wb_hyperram\.hram\.tacc_i\[2\]
*1514 wb_hyperram\.hram\.tacc_i\[3\]
*1515 wb_hyperram\.hram\.tacc_r\[0\]
*1516 wb_hyperram\.hram\.tacc_r\[1\]
*1517 wb_hyperram\.hram\.tacc_r\[2\]
*1518 wb_hyperram\.hram\.tacc_r\[3\]
*1519 wb_hyperram\.hram\.tcsh_i\[0\]
*1520 wb_hyperram\.hram\.tcsh_i\[1\]
*1521 wb_hyperram\.hram\.tcsh_i\[2\]
*1522 wb_hyperram\.hram\.tcsh_i\[3\]
*1523 wb_hyperram\.hram\.tcsh_r\[0\]
*1524 wb_hyperram\.hram\.tcsh_r\[1\]
*1525 wb_hyperram\.hram\.tcsh_r\[2\]
*1526 wb_hyperram\.hram\.tcsh_r\[3\]
*1527 wb_hyperram\.hram\.tpost_i\[0\]
*1528 wb_hyperram\.hram\.tpost_i\[1\]
*1529 wb_hyperram\.hram\.tpost_i\[2\]
*1530 wb_hyperram\.hram\.tpost_i\[3\]
*1531 wb_hyperram\.hram\.tpost_r\[0\]
*1532 wb_hyperram\.hram\.tpost_r\[1\]
*1533 wb_hyperram\.hram\.tpost_r\[2\]
*1534 wb_hyperram\.hram\.tpost_r\[3\]
*1535 wb_hyperram\.hram\.tpre_i\[0\]
*1536 wb_hyperram\.hram\.tpre_i\[1\]
*1537 wb_hyperram\.hram\.tpre_i\[2\]
*1538 wb_hyperram\.hram\.tpre_i\[3\]
*1539 wb_hyperram\.hram\.trmax_i\[0\]
*1540 wb_hyperram\.hram\.trmax_i\[1\]
*1541 wb_hyperram\.hram\.trmax_i\[2\]
*1542 wb_hyperram\.hram\.trmax_i\[3\]
*1543 wb_hyperram\.hram\.trmax_i\[4\]
*1544 wb_hyperram\.hram\.trmax_r\[0\]
*1545 wb_hyperram\.hram\.trmax_r\[1\]
*1546 wb_hyperram\.hram\.trmax_r\[2\]
*1547 wb_hyperram\.hram\.trmax_r\[3\]
*1548 wb_hyperram\.hram\.trmax_r\[4\]
*1549 ANTENNA__0972__A1
*1550 ANTENNA__0972__A2
*1551 ANTENNA__0973__I
*1552 ANTENNA__0975__I
*1553 ANTENNA__0976__I
*1554 ANTENNA__0983__A1
*1555 ANTENNA__0983__A2
*1556 ANTENNA__0988__A1
*1557 ANTENNA__0988__A2
*1558 ANTENNA__0996__A1
*1559 ANTENNA__0996__A2
*1560 ANTENNA__0998__I
*1561 ANTENNA__1003__A1
*1562 ANTENNA__1003__A2
*1563 ANTENNA__1003__A3
*1564 ANTENNA__1005__B
*1565 ANTENNA__1006__A1
*1566 ANTENNA__1006__A2
*1567 ANTENNA__1007__I
*1568 ANTENNA__1011__A2
*1569 ANTENNA__1012__I
*1570 ANTENNA__1016__A2
*1571 ANTENNA__1016__A3
*1572 ANTENNA__1017__I
*1573 ANTENNA__1018__A2
*1574 ANTENNA__1021__A1
*1575 ANTENNA__1021__A2
*1576 ANTENNA__1023__A2
*1577 ANTENNA__1023__A3
*1578 ANTENNA__1025__A1
*1579 ANTENNA__1025__A2
*1580 ANTENNA__1025__A3
*1581 ANTENNA__1027__A1
*1582 ANTENNA__1027__A2
*1583 ANTENNA__1027__A4
*1584 ANTENNA__1028__A1
*1585 ANTENNA__1033__A2
*1586 ANTENNA__1035__A1
*1587 ANTENNA__1035__A2
*1588 ANTENNA__1035__A3
*1589 ANTENNA__1035__A4
*1590 ANTENNA__1036__A3
*1591 ANTENNA__1036__A4
*1592 ANTENNA__1038__A3
*1593 ANTENNA__1039__I
*1594 ANTENNA__1043__A1
*1595 ANTENNA__1043__A2
*1596 ANTENNA__1044__A1
*1597 ANTENNA__1044__A2
*1598 ANTENNA__1044__B
*1599 ANTENNA__1045__I
*1600 ANTENNA__1047__A2
*1601 ANTENNA__1048__I0
*1602 ANTENNA__1048__I1
*1603 ANTENNA__1048__S
*1604 ANTENNA__1049__A1
*1605 ANTENNA__1049__A2
*1606 ANTENNA__1051__A1
*1607 ANTENNA__1052__B2
*1608 ANTENNA__1053__I
*1609 ANTENNA__1054__I
*1610 ANTENNA__1060__C
*1611 ANTENNA__1067__C
*1612 ANTENNA__1072__C
*1613 ANTENNA__1073__B2
*1614 ANTENNA__1075__A1
*1615 ANTENNA__1076__I
*1616 ANTENNA__1077__A1
*1617 ANTENNA__1078__B2
*1618 ANTENNA__1079__I
*1619 ANTENNA__1081__A1
*1620 ANTENNA__1081__B2
*1621 ANTENNA__1084__A1
*1622 ANTENNA__1086__A1
*1623 ANTENNA__1089__I
*1624 ANTENNA__1090__I
*1625 ANTENNA__1091__A1
*1626 ANTENNA__1091__A2
*1627 ANTENNA__1093__A2
*1628 ANTENNA__1095__A2
*1629 ANTENNA__1097__I
*1630 ANTENNA__1100__I
*1631 ANTENNA__1107__I
*1632 ANTENNA__1109__A2
*1633 ANTENNA__1111__I
*1634 ANTENNA__1113__A2
*1635 ANTENNA__1115__A2
*1636 ANTENNA__1117__A2
*1637 ANTENNA__1120__A1
*1638 ANTENNA__1130__A1
*1639 ANTENNA__1149__A2
*1640 ANTENNA__1150__I
*1641 ANTENNA__1151__I
*1642 ANTENNA__1157__A2
*1643 ANTENNA__1158__I
*1644 ANTENNA__1159__I
*1645 ANTENNA__1160__A1
*1646 ANTENNA__1162__I
*1647 ANTENNA__1163__I
*1648 ANTENNA__1168__I
*1649 ANTENNA__1170__A2
*1650 ANTENNA__1172__I
*1651 ANTENNA__1175__B2
*1652 ANTENNA__1175__C
*1653 ANTENNA__1177__I
*1654 ANTENNA__1178__I
*1655 ANTENNA__1184__A2
*1656 ANTENNA__1184__B1
*1657 ANTENNA__1186__A2
*1658 ANTENNA__1191__I
*1659 ANTENNA__1195__B2
*1660 ANTENNA__1195__C
*1661 ANTENNA__1196__A2
*1662 ANTENNA__1196__B1
*1663 ANTENNA__1198__A2
*1664 ANTENNA__1200__I
*1665 ANTENNA__1201__I
*1666 ANTENNA__1203__I
*1667 ANTENNA__1205__I
*1668 ANTENNA__1206__I
*1669 ANTENNA__1207__A2
*1670 ANTENNA__1207__B1
*1671 ANTENNA__1209__A2
*1672 ANTENNA__1212__I
*1673 ANTENNA__1213__I
*1674 ANTENNA__1214__A1
*1675 ANTENNA__1214__B2
*1676 ANTENNA__1216__A1
*1677 ANTENNA__1216__A2
*1678 ANTENNA__1217__A1
*1679 ANTENNA__1219__I
*1680 ANTENNA__1220__A1
*1681 ANTENNA__1220__B1
*1682 ANTENNA__1220__B2
*1683 ANTENNA__1222__A1
*1684 ANTENNA__1222__A2
*1685 ANTENNA__1223__A1
*1686 ANTENNA__1224__I
*1687 ANTENNA__1226__A2
*1688 ANTENNA__1227__I
*1689 ANTENNA__1230__A1
*1690 ANTENNA__1230__C2
*1691 ANTENNA__1232__A1
*1692 ANTENNA__1232__A2
*1693 ANTENNA__1235__I
*1694 ANTENNA__1236__A1
*1695 ANTENNA__1236__C1
*1696 ANTENNA__1236__C2
*1697 ANTENNA__1238__A1
*1698 ANTENNA__1238__A2
*1699 ANTENNA__1241__I
*1700 ANTENNA__1244__C1
*1701 ANTENNA__1244__C2
*1702 ANTENNA__1246__I
*1703 ANTENNA__1247__S0
*1704 ANTENNA__1247__S1
*1705 ANTENNA__1248__A1
*1706 ANTENNA__1248__A2
*1707 ANTENNA__1252__A2
*1708 ANTENNA__1255__A1
*1709 ANTENNA__1261__A2
*1710 ANTENNA__1263__I
*1711 ANTENNA__1267__I
*1712 ANTENNA__1268__A1
*1713 ANTENNA__1269__I
*1714 ANTENNA__1270__I
*1715 ANTENNA__1271__B
*1716 ANTENNA__1272__A2
*1717 ANTENNA__1273__A1
*1718 ANTENNA__1274__B
*1719 ANTENNA__1275__A2
*1720 ANTENNA__1276__I
*1721 ANTENNA__1277__A1
*1722 ANTENNA__1277__A2
*1723 ANTENNA__1278__B
*1724 ANTENNA__1279__A2
*1725 ANTENNA__1280__A1
*1726 ANTENNA__1280__A2
*1727 ANTENNA__1281__I
*1728 ANTENNA__1283__A2
*1729 ANTENNA__1284__I
*1730 ANTENNA__1285__A1
*1731 ANTENNA__1285__A2
*1732 ANTENNA__1286__I
*1733 ANTENNA__1288__A2
*1734 ANTENNA__1289__A1
*1735 ANTENNA__1289__A2
*1736 ANTENNA__1291__A2
*1737 ANTENNA__1292__I
*1738 ANTENNA__1293__A1
*1739 ANTENNA__1293__A2
*1740 ANTENNA__1295__A2
*1741 ANTENNA__1296__A1
*1742 ANTENNA__1296__A2
*1743 ANTENNA__1297__I
*1744 ANTENNA__1299__A2
*1745 ANTENNA__1302__A2
*1746 ANTENNA__1307__A1
*1747 ANTENNA__1309__A1
*1748 ANTENNA__1311__A1
*1749 ANTENNA__1313__I
*1750 ANTENNA__1315__A1
*1751 ANTENNA__1318__A1
*1752 ANTENNA__1319__A1
*1753 ANTENNA__1320__A1
*1754 ANTENNA__1321__A1
*1755 ANTENNA__1322__A1
*1756 ANTENNA__1323__A1
*1757 ANTENNA__1324__I
*1758 ANTENNA__1325__A1
*1759 ANTENNA__1326__A1
*1760 ANTENNA__1331__I
*1761 ANTENNA__1332__I
*1762 ANTENNA__1334__A1
*1763 ANTENNA__1336__A1
*1764 ANTENNA__1338__A1
*1765 ANTENNA__1339__I
*1766 ANTENNA__1341__A1
*1767 ANTENNA__1342__I
*1768 ANTENNA__1343__I
*1769 ANTENNA__1345__A1
*1770 ANTENNA__1347__A1
*1771 ANTENNA__1349__A1
*1772 ANTENNA__1350__I
*1773 ANTENNA__1351__B
*1774 ANTENNA__1352__A1
*1775 ANTENNA__1353__I
*1776 ANTENNA__1355__A1
*1777 ANTENNA__1355__A3
*1778 ANTENNA__1357__A2
*1779 ANTENNA__1357__A3
*1780 ANTENNA__1359__A2
*1781 ANTENNA__1360__I
*1782 ANTENNA__1361__I
*1783 ANTENNA__1363__A2
*1784 ANTENNA__1365__I
*1785 ANTENNA__1367__A1
*1786 ANTENNA__1368__I
*1787 ANTENNA__1372__I
*1788 ANTENNA__1375__I
*1789 ANTENNA__1376__A2
*1790 ANTENNA__1376__B
*1791 ANTENNA__1377__A1
*1792 ANTENNA__1377__A2
*1793 ANTENNA__1378__A2